/*---------------------------------------------------------------------------*\
| =========                 |                                                 |
| \\      /  F ield         | OpenFOAM: The Open Source CFD Toolbox           |
|  \\    /   O peration     | Version:  2406                                  |
|   \\  /    A nd           | Website:  www.openfoam.com                      |
|    \\/     M anipulation  |                                                 |
\*---------------------------------------------------------------------------*/
Build  : 630d60de3b-20240620 OPENFOAM=2406 version=v2406
Arch   : "LSB;label=32;scalar=64"
Exec   : moveDynamicMesh
Date   : Feb 02 2025
Time   : 23:18:42
Host   : Coastal-song
PID    : 31722
I/O    : uncollated
Case   : /home/song/OpenFOAM/song-v2406/run/pukyung_0124_4/background
nProcs : 1
trapFpe: Floating point exception trapping enabled (FOAM_SIGFPE).
fileModificationChecking : Monitoring run-time modified files using timeStampMaster (fileModificationSkew 5, maxFileModificationPolls 20)
allowSystemOperations : Allowing user-supplied system call operations

// * * * * * * * * * * * * * * * * * * * * * * * * * * * * * * * * * * * * * //
Create time

Create dynamic mesh for time = 0
Selecting dynamicFvMesh dynamicOversetFvMesh
Selecting motion solver: multiSolidBodyMotionSolver
Applying motion to entire mesh
Selecting solid-body motion function linearMotion
Applying solid body motion linearMotion to 23010 points of cellZone movingZone


PIMPLE: no residual control data found. Calculations will employ 2 corrector loops

Time = 0.0005
PIMPLE: iteration 1
inverseDistance : detected 2 mesh regions
    zone:0 nCells:138000  voxels:(100 10 1) bb:(-2 1 -0.001) (2 1.5 0.001)
    zone:1 nCells:17200  voxels:(100 10 1) bb:(-2 1 -0.001) (2 1.5 0.001)
Overset analysis : nCells : 155200
    calculated   : 145676
    interpolated : 9180 (from local:9180  mixed local/remote:0  remote:0)
    hole         : 344

PIMPLE: iteration 2
    Point usage OK.
    Upper triangular ordering OK.
    Topological cell zip-up check OK.
    Face vertices OK.
    Face-face connectivity OK.
    Mesh topology OK.
    Boundary openness (-1.190665e-20 -3.025959e-22 5.637716e-14) OK.
    Max cell openness = 1.794542e-16 OK.
    Max aspect ratio = 200 OK.
    Minimum face area = 1.208333e-05. Maximum face area = 0.04.  Face area magnitudes OK.
    Min volume = 6.041667e-07. Max volume = 8e-05.  Total volume = 0.4154667.  Cell volumes OK.
    Mesh non-orthogonality Max: 18.43581 average: 1.866123
    Non-orthogonality check OK.
    Face pyramids OK.
    Max skewness = 1 OK.
    Mesh geometry OK.
Mesh OK.
ExecutionTime = 3.02 s  ClockTime = 3 s

Time = 0.001
PIMPLE: iteration 1
inverseDistance : detected 2 mesh regions
    zone:0 nCells:138000  voxels:(100 10 1) bb:(-2 1 -0.001) (2 1.5 0.001)
    zone:1 nCells:17200  voxels:(100 10 1) bb:(-2 1 -0.001) (2 1.5 0.001)
Overset analysis : nCells : 155200
    calculated   : 145676
    interpolated : 9180 (from local:9180  mixed local/remote:0  remote:0)
    hole         : 344

PIMPLE: iteration 2
    Point usage OK.
    Upper triangular ordering OK.
    Topological cell zip-up check OK.
    Face vertices OK.
    Face-face connectivity OK.
    Mesh topology OK.
    Boundary openness (-1.291269e-20 -3.025959e-22 5.637771e-14) OK.
    Max cell openness = 1.794542e-16 OK.
    Max aspect ratio = 200 OK.
    Minimum face area = 1.208333e-05. Maximum face area = 0.04.  Face area magnitudes OK.
    Min volume = 6.041667e-07. Max volume = 8e-05.  Total volume = 0.4154667.  Cell volumes OK.
    Mesh non-orthogonality Max: 18.43581 average: 1.866123
    Non-orthogonality check OK.
    Face pyramids OK.
    Max skewness = 1 OK.
    Mesh geometry OK.
Mesh OK.
ExecutionTime = 5.27 s  ClockTime = 5 s

Time = 0.0015
PIMPLE: iteration 1
inverseDistance : detected 2 mesh regions
    zone:0 nCells:138000  voxels:(100 10 1) bb:(-2 1 -0.001) (2 1.5 0.001)
    zone:1 nCells:17200  voxels:(100 10 1) bb:(-2 1 -0.001) (2 1.5 0.001)
Overset analysis : nCells : 155200
    calculated   : 145676
    interpolated : 9180 (from local:9180  mixed local/remote:0  remote:0)
    hole         : 344

PIMPLE: iteration 2
    Point usage OK.
    Upper triangular ordering OK.
    Topological cell zip-up check OK.
    Face vertices OK.
    Face-face connectivity OK.
    Mesh topology OK.
    Boundary openness (-1.247255e-20 -3.025959e-22 5.637917e-14) OK.
    Max cell openness = 1.794542e-16 OK.
    Max aspect ratio = 200 OK.
    Minimum face area = 1.208333e-05. Maximum face area = 0.04.  Face area magnitudes OK.
    Min volume = 6.041667e-07. Max volume = 8e-05.  Total volume = 0.4154667.  Cell volumes OK.
    Mesh non-orthogonality Max: 18.43581 average: 1.866123
    Non-orthogonality check OK.
    Face pyramids OK.
    Max skewness = 1 OK.
    Mesh geometry OK.
Mesh OK.
ExecutionTime = 7.48 s  ClockTime = 8 s

Time = 0.002
PIMPLE: iteration 1
inverseDistance : detected 2 mesh regions
    zone:0 nCells:138000  voxels:(100 10 1) bb:(-2 1 -0.001) (2 1.5 0.001)
    zone:1 nCells:17200  voxels:(100 10 1) bb:(-2 1 -0.001) (2 1.5 0.001)
Overset analysis : nCells : 155200
    calculated   : 145676
    interpolated : 9180 (from local:9180  mixed local/remote:0  remote:0)
    hole         : 344

PIMPLE: iteration 2
    Point usage OK.
    Upper triangular ordering OK.
    Topological cell zip-up check OK.
    Face vertices OK.
    Face-face connectivity OK.
    Mesh topology OK.
    Boundary openness (-1.215816e-20 -3.025959e-22 5.637837e-14) OK.
    Max cell openness = 1.794542e-16 OK.
    Max aspect ratio = 200 OK.
    Minimum face area = 1.208333e-05. Maximum face area = 0.04.  Face area magnitudes OK.
    Min volume = 6.041667e-07. Max volume = 8e-05.  Total volume = 0.4154667.  Cell volumes OK.
    Mesh non-orthogonality Max: 18.43581 average: 1.866123
    Non-orthogonality check OK.
    Face pyramids OK.
    Max skewness = 1 OK.
    Mesh geometry OK.
Mesh OK.
ExecutionTime = 9.97 s  ClockTime = 10 s

Time = 0.0025
PIMPLE: iteration 1
inverseDistance : detected 2 mesh regions
    zone:0 nCells:138000  voxels:(100 10 1) bb:(-2 1 -0.001) (2 1.5 0.001)
    zone:1 nCells:17200  voxels:(100 10 1) bb:(-2 1 -0.001) (2 1.5 0.001)
Overset analysis : nCells : 155200
    calculated   : 145676
    interpolated : 9180 (from local:9180  mixed local/remote:0  remote:0)
    hole         : 344

PIMPLE: iteration 2
    Point usage OK.
    Upper triangular ordering OK.
    Topological cell zip-up check OK.
    Face vertices OK.
    Face-face connectivity OK.
    Mesh topology OK.
    Boundary openness (-1.215816e-20 -3.025959e-22 5.637703e-14) OK.
    Max cell openness = 1.794542e-16 OK.
    Max aspect ratio = 200 OK.
    Minimum face area = 1.208333e-05. Maximum face area = 0.04.  Face area magnitudes OK.
    Min volume = 6.041667e-07. Max volume = 8e-05.  Total volume = 0.4154667.  Cell volumes OK.
    Mesh non-orthogonality Max: 18.43581 average: 1.866123
    Non-orthogonality check OK.
    Face pyramids OK.
    Max skewness = 1 OK.
    Mesh geometry OK.
Mesh OK.
ExecutionTime = 12.19 s  ClockTime = 12 s

Time = 0.003
PIMPLE: iteration 1
inverseDistance : detected 2 mesh regions
    zone:0 nCells:138000  voxels:(100 10 1) bb:(-2 1 -0.001) (2 1.5 0.001)
    zone:1 nCells:17200  voxels:(100 10 1) bb:(-2 1 -0.001) (2 1.5 0.001)
Overset analysis : nCells : 155200
    calculated   : 145676
    interpolated : 9180 (from local:9180  mixed local/remote:0  remote:0)
    hole         : 344

PIMPLE: iteration 2
    Point usage OK.
    Upper triangular ordering OK.
    Topological cell zip-up check OK.
    Face vertices OK.
    Face-face connectivity OK.
    Mesh topology OK.
    Boundary openness (-1.266118e-20 -3.025959e-22 5.637797e-14) OK.
    Max cell openness = 1.794542e-16 OK.
    Max aspect ratio = 200 OK.
    Minimum face area = 1.208333e-05. Maximum face area = 0.04.  Face area magnitudes OK.
    Min volume = 6.041667e-07. Max volume = 8e-05.  Total volume = 0.4154667.  Cell volumes OK.
    Mesh non-orthogonality Max: 18.43581 average: 1.866123
    Non-orthogonality check OK.
    Face pyramids OK.
    Max skewness = 1 OK.
    Mesh geometry OK.
Mesh OK.
ExecutionTime = 14.41 s  ClockTime = 15 s

Time = 0.0035
PIMPLE: iteration 1
inverseDistance : detected 2 mesh regions
    zone:0 nCells:138000  voxels:(100 10 1) bb:(-2 1 -0.001) (2 1.5 0.001)
    zone:1 nCells:17200  voxels:(100 10 1) bb:(-2 1 -0.001) (2 1.5 0.001)
Overset analysis : nCells : 155200
    calculated   : 145676
    interpolated : 9180 (from local:9180  mixed local/remote:0  remote:0)
    hole         : 344

PIMPLE: iteration 2
    Point usage OK.
    Upper triangular ordering OK.
    Topological cell zip-up check OK.
    Face vertices OK.
    Face-face connectivity OK.
    Mesh topology OK.
    Boundary openness (-1.215816e-20 -3.025959e-22 5.637877e-14) OK.
    Max cell openness = 1.794542e-16 OK.
    Max aspect ratio = 200 OK.
    Minimum face area = 1.208333e-05. Maximum face area = 0.04.  Face area magnitudes OK.
    Min volume = 6.041667e-07. Max volume = 8e-05.  Total volume = 0.4154667.  Cell volumes OK.
    Mesh non-orthogonality Max: 18.43581 average: 1.866123
    Non-orthogonality check OK.
    Face pyramids OK.
    Max skewness = 1 OK.
    Mesh geometry OK.
Mesh OK.
ExecutionTime = 16.63 s  ClockTime = 17 s

Time = 0.004
PIMPLE: iteration 1
inverseDistance : detected 2 mesh regions
    zone:0 nCells:138000  voxels:(100 10 1) bb:(-2 1 -0.001) (2 1.5 0.001)
    zone:1 nCells:17200  voxels:(100 10 1) bb:(-2 1 -0.001) (2 1.5 0.001)
Overset analysis : nCells : 155200
    calculated   : 145676
    interpolated : 9180 (from local:9180  mixed local/remote:0  remote:0)
    hole         : 344

PIMPLE: iteration 2
    Point usage OK.
    Upper triangular ordering OK.
    Topological cell zip-up check OK.
    Face vertices OK.
    Face-face connectivity OK.
    Mesh topology OK.
    Boundary openness (-1.240967e-20 -3.025959e-22 5.637792e-14) OK.
    Max cell openness = 1.794542e-16 OK.
    Max aspect ratio = 200 OK.
    Minimum face area = 1.208333e-05. Maximum face area = 0.04.  Face area magnitudes OK.
    Min volume = 6.041667e-07. Max volume = 8e-05.  Total volume = 0.4154667.  Cell volumes OK.
    Mesh non-orthogonality Max: 18.43581 average: 1.866123
    Non-orthogonality check OK.
    Face pyramids OK.
    Max skewness = 1 OK.
    Mesh geometry OK.
Mesh OK.
ExecutionTime = 18.8 s  ClockTime = 19 s

Time = 0.0045
PIMPLE: iteration 1
inverseDistance : detected 2 mesh regions
    zone:0 nCells:138000  voxels:(100 10 1) bb:(-2 1 -0.001) (2 1.5 0.001)
    zone:1 nCells:17200  voxels:(100 10 1) bb:(-2 1 -0.001) (2 1.5 0.001)
Overset analysis : nCells : 155200
    calculated   : 145676
    interpolated : 9180 (from local:9180  mixed local/remote:0  remote:0)
    hole         : 344

PIMPLE: iteration 2
    Point usage OK.
    Upper triangular ordering OK.
    Topological cell zip-up check OK.
    Face vertices OK.
    Face-face connectivity OK.
    Mesh topology OK.
    Boundary openness (-1.190665e-20 -3.025959e-22 5.637767e-14) OK.
    Max cell openness = 2.691812e-16 OK.
    Max aspect ratio = 200 OK.
    Minimum face area = 1.208333e-05. Maximum face area = 0.04.  Face area magnitudes OK.
    Min volume = 6.041667e-07. Max volume = 8e-05.  Total volume = 0.4154667.  Cell volumes OK.
    Mesh non-orthogonality Max: 18.43581 average: 1.866123
    Non-orthogonality check OK.
    Face pyramids OK.
    Max skewness = 1 OK.
    Mesh geometry OK.
Mesh OK.
ExecutionTime = 21.01 s  ClockTime = 21 s

Time = 0.005
PIMPLE: iteration 1
inverseDistance : detected 2 mesh regions
    zone:0 nCells:138000  voxels:(100 10 1) bb:(-2 1 -0.001) (2 1.5 0.001)
    zone:1 nCells:17200  voxels:(100 10 1) bb:(-2 1 -0.001) (2 1.5 0.001)
Overset analysis : nCells : 155200
    calculated   : 145676
    interpolated : 9180 (from local:9180  mixed local/remote:0  remote:0)
    hole         : 344

PIMPLE: iteration 2
    Point usage OK.
    Upper triangular ordering OK.
    Topological cell zip-up check OK.
    Face vertices OK.
    Face-face connectivity OK.
    Mesh topology OK.
    Boundary openness (-1.240967e-20 -3.025959e-22 5.637797e-14) OK.
    Max cell openness = 1.794542e-16 OK.
    Max aspect ratio = 200 OK.
    Minimum face area = 1.208333e-05. Maximum face area = 0.04.  Face area magnitudes OK.
    Min volume = 6.041667e-07. Max volume = 8e-05.  Total volume = 0.4154667.  Cell volumes OK.
    Mesh non-orthogonality Max: 18.43581 average: 1.866123
    Non-orthogonality check OK.
    Face pyramids OK.
    Max skewness = 1 OK.
    Mesh geometry OK.
Mesh OK.
ExecutionTime = 23.18 s  ClockTime = 23 s

Time = 0.0055
PIMPLE: iteration 1
inverseDistance : detected 2 mesh regions
    zone:0 nCells:138000  voxels:(100 10 1) bb:(-2 1 -0.001) (2 1.5 0.001)
    zone:1 nCells:17200  voxels:(100 10 1) bb:(-2 1 -0.001) (2 1.5 0.001)
Overset analysis : nCells : 155200
    calculated   : 145676
    interpolated : 9180 (from local:9180  mixed local/remote:0  remote:0)
    hole         : 344

PIMPLE: iteration 2
    Point usage OK.
    Upper triangular ordering OK.
    Topological cell zip-up check OK.
    Face vertices OK.
    Face-face connectivity OK.
    Mesh topology OK.
    Boundary openness (-1.190665e-20 -3.025959e-22 5.63798e-14) OK.
    Max cell openness = 1.794542e-16 OK.
    Max aspect ratio = 200 OK.
    Minimum face area = 1.208333e-05. Maximum face area = 0.04.  Face area magnitudes OK.
    Min volume = 6.041667e-07. Max volume = 8e-05.  Total volume = 0.4154667.  Cell volumes OK.
    Mesh non-orthogonality Max: 18.43581 average: 1.866123
    Non-orthogonality check OK.
    Face pyramids OK.
    Max skewness = 1 OK.
    Mesh geometry OK.
Mesh OK.
ExecutionTime = 25.38 s  ClockTime = 26 s

Time = 0.006
PIMPLE: iteration 1
inverseDistance : detected 2 mesh regions
    zone:0 nCells:138000  voxels:(100 10 1) bb:(-2 1 -0.001) (2 1.5 0.001)
    zone:1 nCells:17200  voxels:(100 10 1) bb:(-2 1 -0.001) (2 1.5 0.001)
Overset analysis : nCells : 155200
    calculated   : 145516
    interpolated : 9016 (from local:9016  mixed local/remote:0  remote:0)
    hole         : 668

PIMPLE: iteration 2
    Point usage OK.
    Upper triangular ordering OK.
    Topological cell zip-up check OK.
    Face vertices OK.
    Face-face connectivity OK.
    Mesh topology OK.
    Boundary openness (-1.228392e-20 -3.025959e-22 5.637974e-14) OK.
    Max cell openness = 1.794542e-16 OK.
    Max aspect ratio = 200 OK.
    Minimum face area = 1.208333e-05. Maximum face area = 0.04.  Face area magnitudes OK.
    Min volume = 6.041667e-07. Max volume = 8e-05.  Total volume = 0.4154667.  Cell volumes OK.
    Mesh non-orthogonality Max: 18.43581 average: 1.866123
    Non-orthogonality check OK.
    Face pyramids OK.
    Max skewness = 1 OK.
    Mesh geometry OK.
Mesh OK.
ExecutionTime = 27.58 s  ClockTime = 28 s

Time = 0.0065
PIMPLE: iteration 1
inverseDistance : detected 2 mesh regions
    zone:0 nCells:138000  voxels:(100 10 1) bb:(-2 1 -0.001) (2 1.5 0.001)
    zone:1 nCells:17200  voxels:(100 10 1) bb:(-2 1 -0.001) (2 1.5 0.001)
Overset analysis : nCells : 155200
    calculated   : 145516
    interpolated : 9016 (from local:9016  mixed local/remote:0  remote:0)
    hole         : 668

PIMPLE: iteration 2
    Point usage OK.
    Upper triangular ordering OK.
    Topological cell zip-up check OK.
    Face vertices OK.
    Face-face connectivity OK.
    Mesh topology OK.
    Boundary openness (-1.228392e-20 -3.025959e-22 5.637668e-14) OK.
    Max cell openness = 1.794542e-16 OK.
    Max aspect ratio = 200 OK.
    Minimum face area = 1.208333e-05. Maximum face area = 0.04.  Face area magnitudes OK.
    Min volume = 6.041667e-07. Max volume = 8e-05.  Total volume = 0.4154667.  Cell volumes OK.
    Mesh non-orthogonality Max: 18.43581 average: 1.866123
    Non-orthogonality check OK.
    Face pyramids OK.
    Max skewness = 1 OK.
    Mesh geometry OK.
Mesh OK.
ExecutionTime = 29.8 s  ClockTime = 30 s

Time = 0.007
PIMPLE: iteration 1
inverseDistance : detected 2 mesh regions
    zone:0 nCells:138000  voxels:(100 10 1) bb:(-2 1 -0.001) (2 1.5 0.001)
    zone:1 nCells:17200  voxels:(100 10 1) bb:(-2 1 -0.001) (2 1.5 0.001)
Overset analysis : nCells : 155200
    calculated   : 145516
    interpolated : 9016 (from local:9016  mixed local/remote:0  remote:0)
    hole         : 668

PIMPLE: iteration 2
    Point usage OK.
    Upper triangular ordering OK.
    Topological cell zip-up check OK.
    Face vertices OK.
    Face-face connectivity OK.
    Mesh topology OK.
    Boundary openness (-1.272406e-20 -3.025959e-22 5.637771e-14) OK.
    Max cell openness = 1.794542e-16 OK.
    Max aspect ratio = 200 OK.
    Minimum face area = 1.208333e-05. Maximum face area = 0.04.  Face area magnitudes OK.
    Min volume = 6.041667e-07. Max volume = 8e-05.  Total volume = 0.4154667.  Cell volumes OK.
    Mesh non-orthogonality Max: 18.43581 average: 1.866123
    Non-orthogonality check OK.
    Face pyramids OK.
    Max skewness = 1 OK.
    Mesh geometry OK.
Mesh OK.
ExecutionTime = 32 s  ClockTime = 32 s

Time = 0.0075
PIMPLE: iteration 1
inverseDistance : detected 2 mesh regions
    zone:0 nCells:138000  voxels:(100 10 1) bb:(-2 1 -0.001) (2 1.5 0.001)
    zone:1 nCells:17200  voxels:(100 10 1) bb:(-2 1 -0.001) (2 1.5 0.001)
Overset analysis : nCells : 155200
    calculated   : 145516
    interpolated : 9016 (from local:9016  mixed local/remote:0  remote:0)
    hole         : 668

PIMPLE: iteration 2
    Point usage OK.
    Upper triangular ordering OK.
    Topological cell zip-up check OK.
    Face vertices OK.
    Face-face connectivity OK.
    Mesh topology OK.
    Boundary openness (-1.215816e-20 -3.025959e-22 5.637903e-14) OK.
    Max cell openness = 1.794542e-16 OK.
    Max aspect ratio = 200 OK.
    Minimum face area = 1.208333e-05. Maximum face area = 0.04.  Face area magnitudes OK.
    Min volume = 6.041667e-07. Max volume = 8e-05.  Total volume = 0.4154667.  Cell volumes OK.
    Mesh non-orthogonality Max: 18.43581 average: 1.866123
    Non-orthogonality check OK.
    Face pyramids OK.
    Max skewness = 1 OK.
    Mesh geometry OK.
Mesh OK.
ExecutionTime = 34.14 s  ClockTime = 34 s

Time = 0.008
PIMPLE: iteration 1
inverseDistance : detected 2 mesh regions
    zone:0 nCells:138000  voxels:(100 10 1) bb:(-2 1 -0.001) (2 1.5 0.001)
    zone:1 nCells:17200  voxels:(100 10 1) bb:(-2 1 -0.001) (2 1.5 0.001)
Overset analysis : nCells : 155200
    calculated   : 145516
    interpolated : 9016 (from local:9016  mixed local/remote:0  remote:0)
    hole         : 668

PIMPLE: iteration 2
    Point usage OK.
    Upper triangular ordering OK.
    Topological cell zip-up check OK.
    Face vertices OK.
    Face-face connectivity OK.
    Mesh topology OK.
    Boundary openness (-1.203241e-20 -3.025959e-22 5.63787e-14) OK.
    Max cell openness = 1.794542e-16 OK.
    Max aspect ratio = 200 OK.
    Minimum face area = 1.208333e-05. Maximum face area = 0.04.  Face area magnitudes OK.
    Min volume = 6.041667e-07. Max volume = 8e-05.  Total volume = 0.4154667.  Cell volumes OK.
    Mesh non-orthogonality Max: 18.43581 average: 1.866123
    Non-orthogonality check OK.
    Face pyramids OK.
    Max skewness = 1 OK.
    Mesh geometry OK.
Mesh OK.
ExecutionTime = 36.35 s  ClockTime = 37 s

Time = 0.0085
PIMPLE: iteration 1
inverseDistance : detected 2 mesh regions
    zone:0 nCells:138000  voxels:(100 10 1) bb:(-2 1 -0.001) (2 1.5 0.001)
    zone:1 nCells:17200  voxels:(100 10 1) bb:(-2 1 -0.001) (2 1.5 0.001)
Overset analysis : nCells : 155200
    calculated   : 145516
    interpolated : 9016 (from local:9016  mixed local/remote:0  remote:0)
    hole         : 668

PIMPLE: iteration 2
    Point usage OK.
    Upper triangular ordering OK.
    Topological cell zip-up check OK.
    Face vertices OK.
    Face-face connectivity OK.
    Mesh topology OK.
    Boundary openness (-1.17809e-20 -3.025959e-22 5.637713e-14) OK.
    Max cell openness = 1.794542e-16 OK.
    Max aspect ratio = 200 OK.
    Minimum face area = 1.208333e-05. Maximum face area = 0.04.  Face area magnitudes OK.
    Min volume = 6.041667e-07. Max volume = 8e-05.  Total volume = 0.4154667.  Cell volumes OK.
    Mesh non-orthogonality Max: 18.43581 average: 1.866123
    Non-orthogonality check OK.
    Face pyramids OK.
    Max skewness = 1 OK.
    Mesh geometry OK.
Mesh OK.
ExecutionTime = 38.68 s  ClockTime = 39 s

Time = 0.009
PIMPLE: iteration 1
inverseDistance : detected 2 mesh regions
    zone:0 nCells:138000  voxels:(100 10 1) bb:(-2 1 -0.001) (2 1.5 0.001)
    zone:1 nCells:17200  voxels:(100 10 1) bb:(-2 1 -0.001) (2 1.5 0.001)
Overset analysis : nCells : 155200
    calculated   : 145516
    interpolated : 9016 (from local:9016  mixed local/remote:0  remote:0)
    hole         : 668

PIMPLE: iteration 2
    Point usage OK.
    Upper triangular ordering OK.
    Topological cell zip-up check OK.
    Face vertices OK.
    Face-face connectivity OK.
    Mesh topology OK.
    Boundary openness (-1.240967e-20 -3.025959e-22 5.637797e-14) OK.
    Max cell openness = 1.794542e-16 OK.
    Max aspect ratio = 200 OK.
    Minimum face area = 1.208333e-05. Maximum face area = 0.04.  Face area magnitudes OK.
    Min volume = 6.041667e-07. Max volume = 8e-05.  Total volume = 0.4154667.  Cell volumes OK.
    Mesh non-orthogonality Max: 18.43581 average: 1.866123
    Non-orthogonality check OK.
    Face pyramids OK.
    Max skewness = 1 OK.
    Mesh geometry OK.
Mesh OK.
ExecutionTime = 40.99 s  ClockTime = 41 s

Time = 0.0095
PIMPLE: iteration 1
inverseDistance : detected 2 mesh regions
    zone:0 nCells:138000  voxels:(100 10 1) bb:(-2 1 -0.001) (2 1.5 0.001)
    zone:1 nCells:17200  voxels:(100 10 1) bb:(-2 1 -0.001) (2 1.5 0.001)
Overset analysis : nCells : 155200
    calculated   : 145520
    interpolated : 9016 (from local:9016  mixed local/remote:0  remote:0)
    hole         : 664

PIMPLE: iteration 2
    Point usage OK.
    Upper triangular ordering OK.
    Topological cell zip-up check OK.
    Face vertices OK.
    Face-face connectivity OK.
    Mesh topology OK.
    Boundary openness (-1.165515e-20 -3.025959e-22 5.637928e-14) OK.
    Max cell openness = 1.794542e-16 OK.
    Max aspect ratio = 200 OK.
    Minimum face area = 1.208333e-05. Maximum face area = 0.04.  Face area magnitudes OK.
    Min volume = 6.041667e-07. Max volume = 8e-05.  Total volume = 0.4154667.  Cell volumes OK.
    Mesh non-orthogonality Max: 18.43581 average: 1.866123
    Non-orthogonality check OK.
    Face pyramids OK.
    Max skewness = 1 OK.
    Mesh geometry OK.
Mesh OK.
ExecutionTime = 43.18 s  ClockTime = 43 s

Time = 0.01
PIMPLE: iteration 1
inverseDistance : detected 2 mesh regions
    zone:0 nCells:138000  voxels:(100 10 1) bb:(-2 1 -0.001) (2 1.5 0.001)
    zone:1 nCells:17200  voxels:(100 10 1) bb:(-2 1 -0.001) (2 1.5 0.001)
Overset analysis : nCells : 155200
    calculated   : 145520
    interpolated : 9016 (from local:9016  mixed local/remote:0  remote:0)
    hole         : 664

PIMPLE: iteration 2
    Point usage OK.
    Upper triangular ordering OK.
    Topological cell zip-up check OK.
    Face vertices OK.
    Face-face connectivity OK.
    Mesh topology OK.
    Boundary openness (-1.228392e-20 -3.025959e-22 5.637877e-14) OK.
    Max cell openness = 1.794542e-16 OK.
    Max aspect ratio = 200 OK.
    Minimum face area = 1.208333e-05. Maximum face area = 0.04.  Face area magnitudes OK.
    Min volume = 6.041667e-07. Max volume = 8e-05.  Total volume = 0.4154667.  Cell volumes OK.
    Mesh non-orthogonality Max: 18.43581 average: 1.866123
    Non-orthogonality check OK.
    Face pyramids OK.
    Max skewness = 1 OK.
    Mesh geometry OK.
Mesh OK.
ExecutionTime = 45.36 s  ClockTime = 46 s

Time = 0.0105
PIMPLE: iteration 1
inverseDistance : detected 2 mesh regions
    zone:0 nCells:138000  voxels:(100 10 1) bb:(-2 1 -0.001) (2 1.5 0.001)
    zone:1 nCells:17200  voxels:(100 10 1) bb:(-2 1 -0.001) (2 1.5 0.001)
Overset analysis : nCells : 155200
    calculated   : 145520
    interpolated : 9016 (from local:9016  mixed local/remote:0  remote:0)
    hole         : 664

PIMPLE: iteration 2
    Point usage OK.
    Upper triangular ordering OK.
    Topological cell zip-up check OK.
    Face vertices OK.
    Face-face connectivity OK.
    Mesh topology OK.
    Boundary openness (-1.234679e-20 -3.025959e-22 5.637662e-14) OK.
    Max cell openness = 1.794542e-16 OK.
    Max aspect ratio = 200 OK.
    Minimum face area = 1.208333e-05. Maximum face area = 0.04.  Face area magnitudes OK.
    Min volume = 6.041667e-07. Max volume = 8e-05.  Total volume = 0.4154667.  Cell volumes OK.
    Mesh non-orthogonality Max: 18.43581 average: 1.866123
    Non-orthogonality check OK.
    Face pyramids OK.
    Max skewness = 1 OK.
    Mesh geometry OK.
Mesh OK.
ExecutionTime = 47.64 s  ClockTime = 48 s

Time = 0.011
PIMPLE: iteration 1
inverseDistance : detected 2 mesh regions
    zone:0 nCells:138000  voxels:(100 10 1) bb:(-2 1 -0.001) (2 1.5 0.001)
    zone:1 nCells:17200  voxels:(100 10 1) bb:(-2 1 -0.001) (2 1.5 0.001)
Overset analysis : nCells : 155200
    calculated   : 145520
    interpolated : 9016 (from local:9016  mixed local/remote:0  remote:0)
    hole         : 664

PIMPLE: iteration 2
    Point usage OK.
    Upper triangular ordering OK.
    Topological cell zip-up check OK.
    Face vertices OK.
    Face-face connectivity OK.
    Mesh topology OK.
    Boundary openness (-1.266118e-20 -3.025959e-22 5.637797e-14) OK.
    Max cell openness = 1.794542e-16 OK.
    Max aspect ratio = 200 OK.
    Minimum face area = 1.208333e-05. Maximum face area = 0.04.  Face area magnitudes OK.
    Min volume = 6.041667e-07. Max volume = 8e-05.  Total volume = 0.4154667.  Cell volumes OK.
    Mesh non-orthogonality Max: 18.43581 average: 1.866123
    Non-orthogonality check OK.
    Face pyramids OK.
    Max skewness = 1 OK.
    Mesh geometry OK.
Mesh OK.
ExecutionTime = 49.87 s  ClockTime = 50 s

Time = 0.0115
PIMPLE: iteration 1
inverseDistance : detected 2 mesh regions
    zone:0 nCells:138000  voxels:(100 10 1) bb:(-2 1 -0.001) (2 1.5 0.001)
    zone:1 nCells:17200  voxels:(100 10 1) bb:(-2 1 -0.001) (2 1.5 0.001)
Overset analysis : nCells : 155200
    calculated   : 145520
    interpolated : 9016 (from local:9016  mixed local/remote:0  remote:0)
    hole         : 664

PIMPLE: iteration 2
    Point usage OK.
    Upper triangular ordering OK.
    Topological cell zip-up check OK.
    Face vertices OK.
    Face-face connectivity OK.
    Mesh topology OK.
    Boundary openness (-1.215816e-20 -3.025959e-22 5.637877e-14) OK.
    Max cell openness = 1.794542e-16 OK.
    Max aspect ratio = 200 OK.
    Minimum face area = 1.208333e-05. Maximum face area = 0.04.  Face area magnitudes OK.
    Min volume = 6.041667e-07. Max volume = 8e-05.  Total volume = 0.4154667.  Cell volumes OK.
    Mesh non-orthogonality Max: 18.43581 average: 1.866123
    Non-orthogonality check OK.
    Face pyramids OK.
    Max skewness = 1 OK.
    Mesh geometry OK.
Mesh OK.
ExecutionTime = 52.15 s  ClockTime = 52 s

Time = 0.012
PIMPLE: iteration 1
inverseDistance : detected 2 mesh regions
    zone:0 nCells:138000  voxels:(100 10 1) bb:(-2 1 -0.001) (2 1.5 0.001)
    zone:1 nCells:17200  voxels:(100 10 1) bb:(-2 1 -0.001) (2 1.5 0.001)
Overset analysis : nCells : 155200
    calculated   : 145520
    interpolated : 9016 (from local:9016  mixed local/remote:0  remote:0)
    hole         : 664

PIMPLE: iteration 2
    Point usage OK.
    Upper triangular ordering OK.
    Topological cell zip-up check OK.
    Face vertices OK.
    Face-face connectivity OK.
    Mesh topology OK.
    Boundary openness (-1.203241e-20 -3.025959e-22 5.637948e-14) OK.
    Max cell openness = 1.794542e-16 OK.
    Max aspect ratio = 200 OK.
    Minimum face area = 1.208333e-05. Maximum face area = 0.04.  Face area magnitudes OK.
    Min volume = 6.041667e-07. Max volume = 8e-05.  Total volume = 0.4154667.  Cell volumes OK.
    Mesh non-orthogonality Max: 18.43581 average: 1.866123
    Non-orthogonality check OK.
    Face pyramids OK.
    Max skewness = 1 OK.
    Mesh geometry OK.
Mesh OK.
ExecutionTime = 54.42 s  ClockTime = 55 s

Time = 0.0125
PIMPLE: iteration 1
inverseDistance : detected 2 mesh regions
    zone:0 nCells:138000  voxels:(100 10 1) bb:(-2 1 -0.001) (2 1.5 0.001)
    zone:1 nCells:17200  voxels:(100 10 1) bb:(-2 1 -0.001) (2 1.5 0.001)
Overset analysis : nCells : 155200
    calculated   : 145520
    interpolated : 9016 (from local:9016  mixed local/remote:0  remote:0)
    hole         : 664

PIMPLE: iteration 2
    Point usage OK.
    Upper triangular ordering OK.
    Topological cell zip-up check OK.
    Face vertices OK.
    Face-face connectivity OK.
    Mesh topology OK.
    Boundary openness (-1.17809e-20 -3.025959e-22 5.637713e-14) OK.
    Max cell openness = 1.794542e-16 OK.
    Max aspect ratio = 200 OK.
    Minimum face area = 1.208333e-05. Maximum face area = 0.04.  Face area magnitudes OK.
    Min volume = 6.041667e-07. Max volume = 8e-05.  Total volume = 0.4154667.  Cell volumes OK.
    Mesh non-orthogonality Max: 18.43581 average: 1.866123
    Non-orthogonality check OK.
    Face pyramids OK.
    Max skewness = 1 OK.
    Mesh geometry OK.
Mesh OK.
ExecutionTime = 56.65 s  ClockTime = 57 s

Time = 0.013
PIMPLE: iteration 1
inverseDistance : detected 2 mesh regions
    zone:0 nCells:138000  voxels:(100 10 1) bb:(-2 1 -0.001) (2 1.5 0.001)
    zone:1 nCells:17200  voxels:(100 10 1) bb:(-2 1 -0.001) (2 1.5 0.001)
Overset analysis : nCells : 155200
    calculated   : 145520
    interpolated : 9016 (from local:9016  mixed local/remote:0  remote:0)
    hole         : 664

PIMPLE: iteration 2
    Point usage OK.
    Upper triangular ordering OK.
    Topological cell zip-up check OK.
    Face vertices OK.
    Face-face connectivity OK.
    Mesh topology OK.
    Boundary openness (-1.190665e-20 -3.025959e-22 5.638054e-14) OK.
    Max cell openness = 1.794542e-16 OK.
    Max aspect ratio = 200 OK.
    Minimum face area = 1.208333e-05. Maximum face area = 0.04.  Face area magnitudes OK.
    Min volume = 6.041667e-07. Max volume = 8e-05.  Total volume = 0.4154667.  Cell volumes OK.
    Mesh non-orthogonality Max: 18.43581 average: 1.866123
    Non-orthogonality check OK.
    Face pyramids OK.
    Max skewness = 1 OK.
    Mesh geometry OK.
Mesh OK.
ExecutionTime = 58.92 s  ClockTime = 59 s

Time = 0.0135
PIMPLE: iteration 1
inverseDistance : detected 2 mesh regions
    zone:0 nCells:138000  voxels:(100 10 1) bb:(-2 1 -0.001) (2 1.5 0.001)
    zone:1 nCells:17200  voxels:(100 10 1) bb:(-2 1 -0.001) (2 1.5 0.001)
Overset analysis : nCells : 155200
    calculated   : 145520
    interpolated : 9016 (from local:9016  mixed local/remote:0  remote:0)
    hole         : 664

PIMPLE: iteration 2
    Point usage OK.
    Upper triangular ordering OK.
    Topological cell zip-up check OK.
    Face vertices OK.
    Face-face connectivity OK.
    Mesh topology OK.
    Boundary openness (-1.190665e-20 -3.025959e-22 5.637928e-14) OK.
    Max cell openness = 1.794542e-16 OK.
    Max aspect ratio = 200 OK.
    Minimum face area = 1.208333e-05. Maximum face area = 0.04.  Face area magnitudes OK.
    Min volume = 6.041667e-07. Max volume = 8e-05.  Total volume = 0.4154667.  Cell volumes OK.
    Mesh non-orthogonality Max: 18.43581 average: 1.866123
    Non-orthogonality check OK.
    Face pyramids OK.
    Max skewness = 1 OK.
    Mesh geometry OK.
Mesh OK.
ExecutionTime = 61.21 s  ClockTime = 61 s

Time = 0.014
PIMPLE: iteration 1
inverseDistance : detected 2 mesh regions
    zone:0 nCells:138000  voxels:(100 10 1) bb:(-2 1 -0.001) (2 1.5 0.001)
    zone:1 nCells:17200  voxels:(100 10 1) bb:(-2 1 -0.001) (2 1.5 0.001)
Overset analysis : nCells : 155200
    calculated   : 145520
    interpolated : 9016 (from local:9016  mixed local/remote:0  remote:0)
    hole         : 664

PIMPLE: iteration 2
    Point usage OK.
    Upper triangular ordering OK.
    Topological cell zip-up check OK.
    Face vertices OK.
    Face-face connectivity OK.
    Mesh topology OK.
    Boundary openness (-1.234679e-20 -3.025959e-22 5.637895e-14) OK.
    Max cell openness = 1.794542e-16 OK.
    Max aspect ratio = 200 OK.
    Minimum face area = 1.208333e-05. Maximum face area = 0.04.  Face area magnitudes OK.
    Min volume = 6.041667e-07. Max volume = 8e-05.  Total volume = 0.4154667.  Cell volumes OK.
    Mesh non-orthogonality Max: 18.43581 average: 1.866123
    Non-orthogonality check OK.
    Face pyramids OK.
    Max skewness = 1 OK.
    Mesh geometry OK.
Mesh OK.
ExecutionTime = 63.5 s  ClockTime = 64 s

Time = 0.0145
PIMPLE: iteration 1
inverseDistance : detected 2 mesh regions
    zone:0 nCells:138000  voxels:(100 10 1) bb:(-2 1 -0.001) (2 1.5 0.001)
    zone:1 nCells:17200  voxels:(100 10 1) bb:(-2 1 -0.001) (2 1.5 0.001)
Overset analysis : nCells : 155200
    calculated   : 145520
    interpolated : 9016 (from local:9016  mixed local/remote:0  remote:0)
    hole         : 664

PIMPLE: iteration 2
    Point usage OK.
    Upper triangular ordering OK.
    Topological cell zip-up check OK.
    Face vertices OK.
    Face-face connectivity OK.
    Mesh topology OK.
    Boundary openness (-1.228392e-20 -3.025959e-22 5.637668e-14) OK.
    Max cell openness = 1.794542e-16 OK.
    Max aspect ratio = 200 OK.
    Minimum face area = 1.208333e-05. Maximum face area = 0.04.  Face area magnitudes OK.
    Min volume = 6.041667e-07. Max volume = 8e-05.  Total volume = 0.4154667.  Cell volumes OK.
    Mesh non-orthogonality Max: 18.43581 average: 1.866123
    Non-orthogonality check OK.
    Face pyramids OK.
    Max skewness = 1 OK.
    Mesh geometry OK.
Mesh OK.
ExecutionTime = 65.91 s  ClockTime = 66 s

Time = 0.015
PIMPLE: iteration 1
inverseDistance : detected 2 mesh regions
    zone:0 nCells:138000  voxels:(100 10 1) bb:(-2 1 -0.001) (2 1.5 0.001)
    zone:1 nCells:17200  voxels:(100 10 1) bb:(-2 1 -0.001) (2 1.5 0.001)
Overset analysis : nCells : 155200
    calculated   : 145520
    interpolated : 9016 (from local:9016  mixed local/remote:0  remote:0)
    hole         : 664

PIMPLE: iteration 2
    Point usage OK.
    Upper triangular ordering OK.
    Topological cell zip-up check OK.
    Face vertices OK.
    Face-face connectivity OK.
    Mesh topology OK.
    Boundary openness (-1.266118e-20 -3.025959e-22 5.637745e-14) OK.
    Max cell openness = 1.794542e-16 OK.
    Max aspect ratio = 200 OK.
    Minimum face area = 1.208333e-05. Maximum face area = 0.04.  Face area magnitudes OK.
    Min volume = 6.041667e-07. Max volume = 8e-05.  Total volume = 0.4154667.  Cell volumes OK.
    Mesh non-orthogonality Max: 18.43581 average: 1.866123
    Non-orthogonality check OK.
    Face pyramids OK.
    Max skewness = 1 OK.
    Mesh geometry OK.
Mesh OK.
ExecutionTime = 68.36 s  ClockTime = 69 s

Time = 0.0155
PIMPLE: iteration 1
inverseDistance : detected 2 mesh regions
    zone:0 nCells:138000  voxels:(100 10 1) bb:(-2 1 -0.001) (2 1.5 0.001)
    zone:1 nCells:17200  voxels:(100 10 1) bb:(-2 1 -0.001) (2 1.5 0.001)
Overset analysis : nCells : 155200
    calculated   : 145520
    interpolated : 9016 (from local:9016  mixed local/remote:0  remote:0)
    hole         : 664

PIMPLE: iteration 2
    Point usage OK.
    Upper triangular ordering OK.
    Topological cell zip-up check OK.
    Face vertices OK.
    Face-face connectivity OK.
    Mesh topology OK.
    Boundary openness (-1.190665e-20 -3.025959e-22 5.638006e-14) OK.
    Max cell openness = 1.794542e-16 OK.
    Max aspect ratio = 200 OK.
    Minimum face area = 1.208333e-05. Maximum face area = 0.04.  Face area magnitudes OK.
    Min volume = 6.041667e-07. Max volume = 8e-05.  Total volume = 0.4154667.  Cell volumes OK.
    Mesh non-orthogonality Max: 18.43581 average: 1.866123
    Non-orthogonality check OK.
    Face pyramids OK.
    Max skewness = 1 OK.
    Mesh geometry OK.
Mesh OK.
ExecutionTime = 70.88 s  ClockTime = 71 s

Time = 0.016
PIMPLE: iteration 1
inverseDistance : detected 2 mesh regions
    zone:0 nCells:138000  voxels:(100 10 1) bb:(-2 1 -0.001) (2 1.5 0.001)
    zone:1 nCells:17200  voxels:(100 10 1) bb:(-2 1 -0.001) (2 1.5 0.001)
Overset analysis : nCells : 155200
    calculated   : 145360
    interpolated : 8856 (from local:8856  mixed local/remote:0  remote:0)
    hole         : 984

PIMPLE: iteration 2
    Point usage OK.
    Upper triangular ordering OK.
    Topological cell zip-up check OK.
    Face vertices OK.
    Face-face connectivity OK.
    Mesh topology OK.
    Boundary openness (-1.303844e-20 -3.025959e-22 5.637968e-14) OK.
    Max cell openness = 1.794542e-16 OK.
    Max aspect ratio = 200 OK.
    Minimum face area = 1.208333e-05. Maximum face area = 0.04.  Face area magnitudes OK.
    Min volume = 6.041667e-07. Max volume = 8e-05.  Total volume = 0.4154667.  Cell volumes OK.
    Mesh non-orthogonality Max: 18.43581 average: 1.866123
    Non-orthogonality check OK.
    Face pyramids OK.
    Max skewness = 1 OK.
    Mesh geometry OK.
Mesh OK.
ExecutionTime = 73.26 s  ClockTime = 73 s

Time = 0.0165
PIMPLE: iteration 1
inverseDistance : detected 2 mesh regions
    zone:0 nCells:138000  voxels:(100 10 1) bb:(-2 1 -0.001) (2 1.5 0.001)
    zone:1 nCells:17200  voxels:(100 10 1) bb:(-2 1 -0.001) (2 1.5 0.001)
Overset analysis : nCells : 155200
    calculated   : 145360
    interpolated : 8856 (from local:8856  mixed local/remote:0  remote:0)
    hole         : 984

PIMPLE: iteration 2
    Point usage OK.
    Upper triangular ordering OK.
    Topological cell zip-up check OK.
    Face vertices OK.
    Face-face connectivity OK.
    Mesh topology OK.
    Boundary openness (-1.203241e-20 -3.025959e-22 5.638114e-14) OK.
    Max cell openness = 1.794542e-16 OK.
    Max aspect ratio = 200 OK.
    Minimum face area = 1.208333e-05. Maximum face area = 0.04.  Face area magnitudes OK.
    Min volume = 6.041667e-07. Max volume = 8e-05.  Total volume = 0.4154667.  Cell volumes OK.
    Mesh non-orthogonality Max: 18.43581 average: 1.866123
    Non-orthogonality check OK.
    Face pyramids OK.
    Max skewness = 1 OK.
    Mesh geometry OK.
Mesh OK.
ExecutionTime = 75.59 s  ClockTime = 76 s

Time = 0.017
PIMPLE: iteration 1
inverseDistance : detected 2 mesh regions
    zone:0 nCells:138000  voxels:(100 10 1) bb:(-2 1 -0.001) (2 1.5 0.001)
    zone:1 nCells:17200  voxels:(100 10 1) bb:(-2 1 -0.001) (2 1.5 0.001)
Overset analysis : nCells : 155200
    calculated   : 145360
    interpolated : 8856 (from local:8856  mixed local/remote:0  remote:0)
    hole         : 984

PIMPLE: iteration 2
    Point usage OK.
    Upper triangular ordering OK.
    Topological cell zip-up check OK.
    Face vertices OK.
    Face-face connectivity OK.
    Mesh topology OK.
    Boundary openness (-1.215816e-20 -3.025959e-22 5.638183e-14) OK.
    Max cell openness = 1.794542e-16 OK.
    Max aspect ratio = 200 OK.
    Minimum face area = 1.208333e-05. Maximum face area = 0.04.  Face area magnitudes OK.
    Min volume = 6.041667e-07. Max volume = 8e-05.  Total volume = 0.4154667.  Cell volumes OK.
    Mesh non-orthogonality Max: 18.43581 average: 1.866123
    Non-orthogonality check OK.
    Face pyramids OK.
    Max skewness = 1 OK.
    Mesh geometry OK.
Mesh OK.
ExecutionTime = 77.86 s  ClockTime = 78 s

Time = 0.0175
PIMPLE: iteration 1
inverseDistance : detected 2 mesh regions
    zone:0 nCells:138000  voxels:(100 10 1) bb:(-2 1 -0.001) (2 1.5 0.001)
    zone:1 nCells:17200  voxels:(100 10 1) bb:(-2 1 -0.001) (2 1.5 0.001)
Overset analysis : nCells : 155200
    calculated   : 145360
    interpolated : 8856 (from local:8856  mixed local/remote:0  remote:0)
    hole         : 984

PIMPLE: iteration 2
    Point usage OK.
    Upper triangular ordering OK.
    Topological cell zip-up check OK.
    Face vertices OK.
    Face-face connectivity OK.
    Mesh topology OK.
    Boundary openness (-1.171802e-20 -3.025959e-22 5.637954e-14) OK.
    Max cell openness = 1.794542e-16 OK.
    Max aspect ratio = 200 OK.
    Minimum face area = 1.208333e-05. Maximum face area = 0.04.  Face area magnitudes OK.
    Min volume = 6.041667e-07. Max volume = 8e-05.  Total volume = 0.4154667.  Cell volumes OK.
    Mesh non-orthogonality Max: 18.43581 average: 1.866123
    Non-orthogonality check OK.
    Face pyramids OK.
    Max skewness = 1 OK.
    Mesh geometry OK.
Mesh OK.
ExecutionTime = 80.16 s  ClockTime = 80 s

Time = 0.018
PIMPLE: iteration 1
inverseDistance : detected 2 mesh regions
    zone:0 nCells:138000  voxels:(100 10 1) bb:(-2 1 -0.001) (2 1.5 0.001)
    zone:1 nCells:17200  voxels:(100 10 1) bb:(-2 1 -0.001) (2 1.5 0.001)
Overset analysis : nCells : 155200
    calculated   : 145360
    interpolated : 8856 (from local:8856  mixed local/remote:0  remote:0)
    hole         : 984

PIMPLE: iteration 2
    Point usage OK.
    Upper triangular ordering OK.
    Topological cell zip-up check OK.
    Face vertices OK.
    Face-face connectivity OK.
    Mesh topology OK.
    Boundary openness (-1.228392e-20 -3.025959e-22 5.637916e-14) OK.
    Max cell openness = 1.794542e-16 OK.
    Max aspect ratio = 200 OK.
    Minimum face area = 1.208333e-05. Maximum face area = 0.04.  Face area magnitudes OK.
    Min volume = 6.041667e-07. Max volume = 8e-05.  Total volume = 0.4154667.  Cell volumes OK.
    Mesh non-orthogonality Max: 18.43581 average: 1.866123
    Non-orthogonality check OK.
    Face pyramids OK.
    Max skewness = 1 OK.
    Mesh geometry OK.
Mesh OK.
ExecutionTime = 82.57 s  ClockTime = 83 s

Time = 0.0185
PIMPLE: iteration 1
inverseDistance : detected 2 mesh regions
    zone:0 nCells:138000  voxels:(100 10 1) bb:(-2 1 -0.001) (2 1.5 0.001)
    zone:1 nCells:17200  voxels:(100 10 1) bb:(-2 1 -0.001) (2 1.5 0.001)
Overset analysis : nCells : 155200
    calculated   : 145360
    interpolated : 8856 (from local:8856  mixed local/remote:0  remote:0)
    hole         : 984

PIMPLE: iteration 2
    Point usage OK.
    Upper triangular ordering OK.
    Topological cell zip-up check OK.
    Face vertices OK.
    Face-face connectivity OK.
    Mesh topology OK.
    Boundary openness (-1.228392e-20 -3.025959e-22 5.637676e-14) OK.
    Max cell openness = 1.794542e-16 OK.
    Max aspect ratio = 200 OK.
    Minimum face area = 1.208333e-05. Maximum face area = 0.04.  Face area magnitudes OK.
    Min volume = 6.041667e-07. Max volume = 8e-05.  Total volume = 0.4154667.  Cell volumes OK.
    Mesh non-orthogonality Max: 18.43581 average: 1.866123
    Non-orthogonality check OK.
    Face pyramids OK.
    Max skewness = 1 OK.
    Mesh geometry OK.
Mesh OK.
ExecutionTime = 84.9 s  ClockTime = 85 s

Time = 0.019
PIMPLE: iteration 1
inverseDistance : detected 2 mesh regions
    zone:0 nCells:138000  voxels:(100 10 1) bb:(-2 1 -0.001) (2 1.5 0.001)
    zone:1 nCells:17200  voxels:(100 10 1) bb:(-2 1 -0.001) (2 1.5 0.001)
Overset analysis : nCells : 155200
    calculated   : 145360
    interpolated : 8856 (from local:8856  mixed local/remote:0  remote:0)
    hole         : 984

PIMPLE: iteration 2
    Point usage OK.
    Upper triangular ordering OK.
    Topological cell zip-up check OK.
    Face vertices OK.
    Face-face connectivity OK.
    Mesh topology OK.
    Boundary openness (-1.266118e-20 -3.025959e-22 5.637796e-14) OK.
    Max cell openness = 1.794542e-16 OK.
    Max aspect ratio = 200 OK.
    Minimum face area = 1.208333e-05. Maximum face area = 0.04.  Face area magnitudes OK.
    Min volume = 6.041667e-07. Max volume = 8e-05.  Total volume = 0.4154667.  Cell volumes OK.
    Mesh non-orthogonality Max: 18.43581 average: 1.866123
    Non-orthogonality check OK.
    Face pyramids OK.
    Max skewness = 1 OK.
    Mesh geometry OK.
Mesh OK.
ExecutionTime = 87.21 s  ClockTime = 87 s

Time = 0.0195
PIMPLE: iteration 1
inverseDistance : detected 2 mesh regions
    zone:0 nCells:138000  voxels:(100 10 1) bb:(-2 1 -0.001) (2 1.5 0.001)
    zone:1 nCells:17200  voxels:(100 10 1) bb:(-2 1 -0.001) (2 1.5 0.001)
Overset analysis : nCells : 155200
    calculated   : 145360
    interpolated : 8856 (from local:8856  mixed local/remote:0  remote:0)
    hole         : 984

PIMPLE: iteration 2
    Point usage OK.
    Upper triangular ordering OK.
    Topological cell zip-up check OK.
    Face vertices OK.
    Face-face connectivity OK.
    Mesh topology OK.
    Boundary openness (-1.190665e-20 -3.025959e-22 5.637954e-14) OK.
    Max cell openness = 1.794542e-16 OK.
    Max aspect ratio = 200 OK.
    Minimum face area = 1.208333e-05. Maximum face area = 0.04.  Face area magnitudes OK.
    Min volume = 6.041667e-07. Max volume = 8e-05.  Total volume = 0.4154667.  Cell volumes OK.
    Mesh non-orthogonality Max: 18.43581 average: 1.866123
    Non-orthogonality check OK.
    Face pyramids OK.
    Max skewness = 1 OK.
    Mesh geometry OK.
Mesh OK.
ExecutionTime = 89.44 s  ClockTime = 90 s

Time = 0.02
PIMPLE: iteration 1
inverseDistance : detected 2 mesh regions
    zone:0 nCells:138000  voxels:(100 10 1) bb:(-2 1 -0.001) (2 1.5 0.001)
    zone:1 nCells:17200  voxels:(100 10 1) bb:(-2 1 -0.001) (2 1.5 0.001)
Overset analysis : nCells : 155200
    calculated   : 145360
    interpolated : 8856 (from local:8856  mixed local/remote:0  remote:0)
    hole         : 984

PIMPLE: iteration 2
    Point usage OK.
    Upper triangular ordering OK.
    Topological cell zip-up check OK.
    Face vertices OK.
    Face-face connectivity OK.
    Mesh topology OK.
    Boundary openness (-1.303844e-20 -3.025959e-22 5.637994e-14) OK.
    Max cell openness = 1.794542e-16 OK.
    Max aspect ratio = 200 OK.
    Minimum face area = 1.208333e-05. Maximum face area = 0.04.  Face area magnitudes OK.
    Min volume = 6.041667e-07. Max volume = 8e-05.  Total volume = 0.4154667.  Cell volumes OK.
    Mesh non-orthogonality Max: 18.43581 average: 1.866123
    Non-orthogonality check OK.
    Face pyramids OK.
    Max skewness = 1 OK.
    Mesh geometry OK.
Mesh OK.
ExecutionTime = 91.91 s  ClockTime = 92 s

Time = 0.0205
PIMPLE: iteration 1
inverseDistance : detected 2 mesh regions
    zone:0 nCells:138000  voxels:(100 10 1) bb:(-2 1 -0.001) (2 1.5 0.001)
    zone:1 nCells:17200  voxels:(100 10 1) bb:(-2 1 -0.001) (2 1.5 0.001)
Overset analysis : nCells : 155200
    calculated   : 145360
    interpolated : 8856 (from local:8856  mixed local/remote:0  remote:0)
    hole         : 984

PIMPLE: iteration 2
    Point usage OK.
    Upper triangular ordering OK.
    Topological cell zip-up check OK.
    Face vertices OK.
    Face-face connectivity OK.
    Mesh topology OK.
    Boundary openness (-1.203241e-20 -3.025959e-22 5.638217e-14) OK.
    Max cell openness = 1.794542e-16 OK.
    Max aspect ratio = 200 OK.
    Minimum face area = 1.208333e-05. Maximum face area = 0.04.  Face area magnitudes OK.
    Min volume = 6.041667e-07. Max volume = 8e-05.  Total volume = 0.4154667.  Cell volumes OK.
    Mesh non-orthogonality Max: 18.43581 average: 1.866123
    Non-orthogonality check OK.
    Face pyramids OK.
    Max skewness = 1 OK.
    Mesh geometry OK.
Mesh OK.
ExecutionTime = 94.35 s  ClockTime = 95 s

Time = 0.021
PIMPLE: iteration 1
inverseDistance : detected 2 mesh regions
    zone:0 nCells:138000  voxels:(100 10 1) bb:(-2 1 -0.001) (2 1.5 0.001)
    zone:1 nCells:17200  voxels:(100 10 1) bb:(-2 1 -0.001) (2 1.5 0.001)
Overset analysis : nCells : 155200
    calculated   : 145360
    interpolated : 8856 (from local:8856  mixed local/remote:0  remote:0)
    hole         : 984

PIMPLE: iteration 2
    Point usage OK.
    Upper triangular ordering OK.
    Topological cell zip-up check OK.
    Face vertices OK.
    Face-face connectivity OK.
    Mesh topology OK.
    Boundary openness (-1.215816e-20 -3.025959e-22 5.638054e-14) OK.
    Max cell openness = 1.794542e-16 OK.
    Max aspect ratio = 200 OK.
    Minimum face area = 1.208333e-05. Maximum face area = 0.04.  Face area magnitudes OK.
    Min volume = 6.041667e-07. Max volume = 8e-05.  Total volume = 0.4154667.  Cell volumes OK.
    Mesh non-orthogonality Max: 18.43581 average: 1.866123
    Non-orthogonality check OK.
    Face pyramids OK.
    Max skewness = 1 OK.
    Mesh geometry OK.
Mesh OK.
ExecutionTime = 96.73 s  ClockTime = 97 s

Time = 0.0215
PIMPLE: iteration 1
inverseDistance : detected 2 mesh regions
    zone:0 nCells:138000  voxels:(100 10 1) bb:(-2 1 -0.001) (2 1.5 0.001)
    zone:1 nCells:17200  voxels:(100 10 1) bb:(-2 1 -0.001) (2 1.5 0.001)
Overset analysis : nCells : 155200
    calculated   : 145360
    interpolated : 8856 (from local:8856  mixed local/remote:0  remote:0)
    hole         : 984

PIMPLE: iteration 2
    Point usage OK.
    Upper triangular ordering OK.
    Topological cell zip-up check OK.
    Face vertices OK.
    Face-face connectivity OK.
    Mesh topology OK.
    Boundary openness (-1.190665e-20 -3.025959e-22 5.637928e-14) OK.
    Max cell openness = 1.794542e-16 OK.
    Max aspect ratio = 200 OK.
    Minimum face area = 1.208333e-05. Maximum face area = 0.04.  Face area magnitudes OK.
    Min volume = 6.041667e-07. Max volume = 8e-05.  Total volume = 0.4154667.  Cell volumes OK.
    Mesh non-orthogonality Max: 18.43581 average: 1.866123
    Non-orthogonality check OK.
    Face pyramids OK.
    Max skewness = 1 OK.
    Mesh geometry OK.
Mesh OK.
ExecutionTime = 99.18 s  ClockTime = 99 s

Time = 0.022
PIMPLE: iteration 1
inverseDistance : detected 2 mesh regions
    zone:0 nCells:138000  voxels:(100 10 1) bb:(-2 1 -0.001) (2 1.5 0.001)
    zone:1 nCells:17200  voxels:(100 10 1) bb:(-2 1 -0.001) (2 1.5 0.001)
Overset analysis : nCells : 155200
    calculated   : 145360
    interpolated : 8856 (from local:8856  mixed local/remote:0  remote:0)
    hole         : 984

PIMPLE: iteration 2
    Point usage OK.
    Upper triangular ordering OK.
    Topological cell zip-up check OK.
    Face vertices OK.
    Face-face connectivity OK.
    Mesh topology OK.
    Boundary openness (-1.228392e-20 -3.025959e-22 5.637923e-14) OK.
    Max cell openness = 1.794542e-16 OK.
    Max aspect ratio = 200 OK.
    Minimum face area = 1.208333e-05. Maximum face area = 0.04.  Face area magnitudes OK.
    Min volume = 6.041667e-07. Max volume = 8e-05.  Total volume = 0.4154667.  Cell volumes OK.
    Mesh non-orthogonality Max: 18.43581 average: 1.866123
    Non-orthogonality check OK.
    Face pyramids OK.
    Max skewness = 1 OK.
    Mesh geometry OK.
Mesh OK.
ExecutionTime = 101.7 s  ClockTime = 102 s

Time = 0.0225
PIMPLE: iteration 1
inverseDistance : detected 2 mesh regions
    zone:0 nCells:138000  voxels:(100 10 1) bb:(-2 1 -0.001) (2 1.5 0.001)
    zone:1 nCells:17200  voxels:(100 10 1) bb:(-2 1 -0.001) (2 1.5 0.001)
Overset analysis : nCells : 155200
    calculated   : 145360
    interpolated : 8856 (from local:8856  mixed local/remote:0  remote:0)
    hole         : 984

PIMPLE: iteration 2
    Point usage OK.
    Upper triangular ordering OK.
    Topological cell zip-up check OK.
    Face vertices OK.
    Face-face connectivity OK.
    Mesh topology OK.
    Boundary openness (-1.278693e-20 -3.025959e-22 5.637702e-14) OK.
    Max cell openness = 1.794542e-16 OK.
    Max aspect ratio = 200 OK.
    Minimum face area = 1.208333e-05. Maximum face area = 0.04.  Face area magnitudes OK.
    Min volume = 6.041667e-07. Max volume = 8e-05.  Total volume = 0.4154667.  Cell volumes OK.
    Mesh non-orthogonality Max: 18.43581 average: 1.866123
    Non-orthogonality check OK.
    Face pyramids OK.
    Max skewness = 1 OK.
    Mesh geometry OK.
Mesh OK.
ExecutionTime = 104.17 s  ClockTime = 104 s

Time = 0.023
PIMPLE: iteration 1
inverseDistance : detected 2 mesh regions
    zone:0 nCells:138000  voxels:(100 10 1) bb:(-2 1 -0.001) (2 1.5 0.001)
    zone:1 nCells:17200  voxels:(100 10 1) bb:(-2 1 -0.001) (2 1.5 0.001)
Overset analysis : nCells : 155200
    calculated   : 145360
    interpolated : 8856 (from local:8856  mixed local/remote:0  remote:0)
    hole         : 984

PIMPLE: iteration 2
    Point usage OK.
    Upper triangular ordering OK.
    Topological cell zip-up check OK.
    Face vertices OK.
    Face-face connectivity OK.
    Mesh topology OK.
    Boundary openness (-1.272406e-20 -3.025959e-22 5.637745e-14) OK.
    Max cell openness = 1.794542e-16 OK.
    Max aspect ratio = 200 OK.
    Minimum face area = 1.208333e-05. Maximum face area = 0.04.  Face area magnitudes OK.
    Min volume = 6.041667e-07. Max volume = 8e-05.  Total volume = 0.4154667.  Cell volumes OK.
    Mesh non-orthogonality Max: 18.43581 average: 1.866123
    Non-orthogonality check OK.
    Face pyramids OK.
    Max skewness = 1 OK.
    Mesh geometry OK.
Mesh OK.
ExecutionTime = 106.72 s  ClockTime = 107 s

Time = 0.0235
PIMPLE: iteration 1
inverseDistance : detected 2 mesh regions
    zone:0 nCells:138000  voxels:(100 10 1) bb:(-2 1 -0.001) (2 1.5 0.001)
    zone:1 nCells:17200  voxels:(100 10 1) bb:(-2 1 -0.001) (2 1.5 0.001)
Overset analysis : nCells : 155200
    calculated   : 145360
    interpolated : 8856 (from local:8856  mixed local/remote:0  remote:0)
    hole         : 984

PIMPLE: iteration 2
    Point usage OK.
    Upper triangular ordering OK.
    Topological cell zip-up check OK.
    Face vertices OK.
    Face-face connectivity OK.
    Mesh topology OK.
    Boundary openness (-1.291269e-20 -3.025959e-22 5.638071e-14) OK.
    Max cell openness = 1.794542e-16 OK.
    Max aspect ratio = 200 OK.
    Minimum face area = 1.208333e-05. Maximum face area = 0.04.  Face area magnitudes OK.
    Min volume = 6.041667e-07. Max volume = 8e-05.  Total volume = 0.4154667.  Cell volumes OK.
    Mesh non-orthogonality Max: 18.43581 average: 1.866123
    Non-orthogonality check OK.
    Face pyramids OK.
    Max skewness = 1 OK.
    Mesh geometry OK.
Mesh OK.
ExecutionTime = 109.04 s  ClockTime = 109 s

Time = 0.024
PIMPLE: iteration 1
inverseDistance : detected 2 mesh regions
    zone:0 nCells:138000  voxels:(100 10 1) bb:(-2 1 -0.001) (2 1.5 0.001)
    zone:1 nCells:17200  voxels:(100 10 1) bb:(-2 1 -0.001) (2 1.5 0.001)
Overset analysis : nCells : 155200
    calculated   : 145360
    interpolated : 8856 (from local:8856  mixed local/remote:0  remote:0)
    hole         : 984

PIMPLE: iteration 2
    Point usage OK.
    Upper triangular ordering OK.
    Topological cell zip-up check OK.
    Face vertices OK.
    Face-face connectivity OK.
    Mesh topology OK.
    Boundary openness (-1.303844e-20 -3.025959e-22 5.637972e-14) OK.
    Max cell openness = 1.794542e-16 OK.
    Max aspect ratio = 200 OK.
    Minimum face area = 1.208333e-05. Maximum face area = 0.04.  Face area magnitudes OK.
    Min volume = 6.041667e-07. Max volume = 8e-05.  Total volume = 0.4154667.  Cell volumes OK.
    Mesh non-orthogonality Max: 18.43581 average: 1.866123
    Non-orthogonality check OK.
    Face pyramids OK.
    Max skewness = 1 OK.
    Mesh geometry OK.
Mesh OK.
ExecutionTime = 111.41 s  ClockTime = 112 s

Time = 0.0245
PIMPLE: iteration 1
inverseDistance : detected 2 mesh regions
    zone:0 nCells:138000  voxels:(100 10 1) bb:(-2 1 -0.001) (2 1.5 0.001)
    zone:1 nCells:17200  voxels:(100 10 1) bb:(-2 1 -0.001) (2 1.5 0.001)
Overset analysis : nCells : 155200
    calculated   : 145360
    interpolated : 8856 (from local:8856  mixed local/remote:0  remote:0)
    hole         : 984

PIMPLE: iteration 2
    Point usage OK.
    Upper triangular ordering OK.
    Topological cell zip-up check OK.
    Face vertices OK.
    Face-face connectivity OK.
    Mesh topology OK.
    Boundary openness (-1.228392e-20 -3.025959e-22 5.638197e-14) OK.
    Max cell openness = 1.794542e-16 OK.
    Max aspect ratio = 200 OK.
    Minimum face area = 1.208333e-05. Maximum face area = 0.04.  Face area magnitudes OK.
    Min volume = 6.041667e-07. Max volume = 8e-05.  Total volume = 0.4154667.  Cell volumes OK.
    Mesh non-orthogonality Max: 18.43581 average: 1.866123
    Non-orthogonality check OK.
    Face pyramids OK.
    Max skewness = 1 OK.
    Mesh geometry OK.
Mesh OK.
ExecutionTime = 113.86 s  ClockTime = 114 s

Time = 0.025
PIMPLE: iteration 1
inverseDistance : detected 2 mesh regions
    zone:0 nCells:138000  voxels:(100 10 1) bb:(-2 1 -0.001) (2 1.5 0.001)
    zone:1 nCells:17200  voxels:(100 10 1) bb:(-2 1 -0.001) (2 1.5 0.001)
Overset analysis : nCells : 155200
    calculated   : 145360
    interpolated : 8856 (from local:8856  mixed local/remote:0  remote:0)
    hole         : 984

PIMPLE: iteration 2
    Point usage OK.
    Upper triangular ordering OK.
    Topological cell zip-up check OK.
    Face vertices OK.
    Face-face connectivity OK.
    Mesh topology OK.
    Boundary openness (-1.266118e-20 -3.025959e-22 5.638296e-14) OK.
    Max cell openness = 1.794542e-16 OK.
    Max aspect ratio = 200 OK.
    Minimum face area = 1.208333e-05. Maximum face area = 0.04.  Face area magnitudes OK.
    Min volume = 6.041667e-07. Max volume = 8e-05.  Total volume = 0.4154667.  Cell volumes OK.
    Mesh non-orthogonality Max: 18.43581 average: 1.866123
    Non-orthogonality check OK.
    Face pyramids OK.
    Max skewness = 1 OK.
    Mesh geometry OK.
Mesh OK.
--> FOAM Warning : 
    From bool Foam::oversetPolyPatch::master() const
    in file oversetPolyPatch/oversetPolyPatch.C at line 145
    The master overset patch is not the first patch. Generally the first patch should be an overset patch to guarantee consistent operation.
ExecutionTime = 116.77 s  ClockTime = 117 s

Time = 0.0255
PIMPLE: iteration 1
inverseDistance : detected 2 mesh regions
    zone:0 nCells:138000  voxels:(100 10 1) bb:(-2 1 -0.001) (2 1.5 0.001)
    zone:1 nCells:17200  voxels:(100 10 1) bb:(-2 1 -0.001) (2 1.5 0.001)
Overset analysis : nCells : 155200
    calculated   : 145200
    interpolated : 8692 (from local:8692  mixed local/remote:0  remote:0)
    hole         : 1308

PIMPLE: iteration 2
    Point usage OK.
    Upper triangular ordering OK.
    Topological cell zip-up check OK.
    Face vertices OK.
    Face-face connectivity OK.
    Mesh topology OK.
    Boundary openness (-1.228392e-20 -3.025959e-22 5.637923e-14) OK.
    Max cell openness = 1.794542e-16 OK.
    Max aspect ratio = 200 OK.
    Minimum face area = 1.208333e-05. Maximum face area = 0.04.  Face area magnitudes OK.
    Min volume = 6.041667e-07. Max volume = 8e-05.  Total volume = 0.4154667.  Cell volumes OK.
    Mesh non-orthogonality Max: 18.43581 average: 1.866123
    Non-orthogonality check OK.
    Face pyramids OK.
    Max skewness = 1 OK.
    Mesh geometry OK.
Mesh OK.
ExecutionTime = 119.24 s  ClockTime = 119 s

Time = 0.026
PIMPLE: iteration 1
inverseDistance : detected 2 mesh regions
    zone:0 nCells:138000  voxels:(100 10 1) bb:(-2 1 -0.001) (2 1.5 0.001)
    zone:1 nCells:17200  voxels:(100 10 1) bb:(-2 1 -0.001) (2 1.5 0.001)
Overset analysis : nCells : 155200
    calculated   : 145200
    interpolated : 8692 (from local:8692  mixed local/remote:0  remote:0)
    hole         : 1308

PIMPLE: iteration 2
    Point usage OK.
    Upper triangular ordering OK.
    Topological cell zip-up check OK.
    Face vertices OK.
    Face-face connectivity OK.
    Mesh topology OK.
    Boundary openness (-1.253542e-20 -3.025959e-22 5.637934e-14) OK.
    Max cell openness = 1.794542e-16 OK.
    Max aspect ratio = 200 OK.
    Minimum face area = 1.208333e-05. Maximum face area = 0.04.  Face area magnitudes OK.
    Min volume = 6.041667e-07. Max volume = 8e-05.  Total volume = 0.4154667.  Cell volumes OK.
    Mesh non-orthogonality Max: 18.43581 average: 1.866123
    Non-orthogonality check OK.
    Face pyramids OK.
    Max skewness = 1 OK.
    Mesh geometry OK.
Mesh OK.
ExecutionTime = 121.85 s  ClockTime = 122 s

Time = 0.0265
PIMPLE: iteration 1
inverseDistance : detected 2 mesh regions
    zone:0 nCells:138000  voxels:(100 10 1) bb:(-2 1 -0.001) (2 1.5 0.001)
    zone:1 nCells:17200  voxels:(100 10 1) bb:(-2 1 -0.001) (2 1.5 0.001)
Overset analysis : nCells : 155200
    calculated   : 145200
    interpolated : 8692 (from local:8692  mixed local/remote:0  remote:0)
    hole         : 1308

PIMPLE: iteration 2
    Point usage OK.
    Upper triangular ordering OK.
    Topological cell zip-up check OK.
    Face vertices OK.
    Face-face connectivity OK.
    Mesh topology OK.
    Boundary openness (-1.284981e-20 -3.025959e-22 5.637689e-14) OK.
    Max cell openness = 1.794542e-16 OK.
    Max aspect ratio = 200 OK.
    Minimum face area = 1.208333e-05. Maximum face area = 0.04.  Face area magnitudes OK.
    Min volume = 6.041667e-07. Max volume = 8e-05.  Total volume = 0.4154667.  Cell volumes OK.
    Mesh non-orthogonality Max: 18.43581 average: 1.866123
    Non-orthogonality check OK.
    Face pyramids OK.
    Max skewness = 1 OK.
    Mesh geometry OK.
Mesh OK.
ExecutionTime = 124.32 s  ClockTime = 125 s

Time = 0.027
PIMPLE: iteration 1
inverseDistance : detected 2 mesh regions
    zone:0 nCells:138000  voxels:(100 10 1) bb:(-2 1 -0.001) (2 1.5 0.001)
    zone:1 nCells:17200  voxels:(100 10 1) bb:(-2 1 -0.001) (2 1.5 0.001)
Overset analysis : nCells : 155200
    calculated   : 145200
    interpolated : 8692 (from local:8692  mixed local/remote:0  remote:0)
    hole         : 1308

PIMPLE: iteration 2
    Point usage OK.
    Upper triangular ordering OK.
    Topological cell zip-up check OK.
    Face vertices OK.
    Face-face connectivity OK.
    Mesh topology OK.
    Boundary openness (-1.253542e-20 -3.025959e-22 5.637964e-14) OK.
    Max cell openness = 1.794542e-16 OK.
    Max aspect ratio = 200 OK.
    Minimum face area = 1.208333e-05. Maximum face area = 0.04.  Face area magnitudes OK.
    Min volume = 6.041667e-07. Max volume = 8e-05.  Total volume = 0.4154667.  Cell volumes OK.
    Mesh non-orthogonality Max: 18.43581 average: 1.866123
    Non-orthogonality check OK.
    Face pyramids OK.
    Max skewness = 1 OK.
    Mesh geometry OK.
Mesh OK.
ExecutionTime = 126.64 s  ClockTime = 127 s

Time = 0.0275
PIMPLE: iteration 1
inverseDistance : detected 2 mesh regions
    zone:0 nCells:138000  voxels:(100 10 1) bb:(-2 1 -0.001) (2 1.5 0.001)
    zone:1 nCells:17200  voxels:(100 10 1) bb:(-2 1 -0.001) (2 1.5 0.001)
Overset analysis : nCells : 155200
    calculated   : 145200
    interpolated : 8692 (from local:8692  mixed local/remote:0  remote:0)
    hole         : 1308

PIMPLE: iteration 2
    Point usage OK.
    Upper triangular ordering OK.
    Topological cell zip-up check OK.
    Face vertices OK.
    Face-face connectivity OK.
    Mesh topology OK.
    Boundary openness (-1.253542e-20 -3.025959e-22 5.637959e-14) OK.
    Max cell openness = 1.794542e-16 OK.
    Max aspect ratio = 200 OK.
    Minimum face area = 1.208333e-05. Maximum face area = 0.04.  Face area magnitudes OK.
    Min volume = 6.041667e-07. Max volume = 8e-05.  Total volume = 0.4154667.  Cell volumes OK.
    Mesh non-orthogonality Max: 18.43581 average: 1.866123
    Non-orthogonality check OK.
    Face pyramids OK.
    Max skewness = 1 OK.
    Mesh geometry OK.
Mesh OK.
ExecutionTime = 128.93 s  ClockTime = 129 s

Time = 0.028
PIMPLE: iteration 1
inverseDistance : detected 2 mesh regions
    zone:0 nCells:138000  voxels:(100 10 1) bb:(-2 1 -0.001) (2 1.5 0.001)
    zone:1 nCells:17200  voxels:(100 10 1) bb:(-2 1 -0.001) (2 1.5 0.001)
Overset analysis : nCells : 155200
    calculated   : 145200
    interpolated : 8692 (from local:8692  mixed local/remote:0  remote:0)
    hole         : 1308

PIMPLE: iteration 2
    Point usage OK.
    Upper triangular ordering OK.
    Topological cell zip-up check OK.
    Face vertices OK.
    Face-face connectivity OK.
    Mesh topology OK.
    Boundary openness (-1.253542e-20 -3.025959e-22 5.63799e-14) OK.
    Max cell openness = 1.794542e-16 OK.
    Max aspect ratio = 200 OK.
    Minimum face area = 1.208333e-05. Maximum face area = 0.04.  Face area magnitudes OK.
    Min volume = 6.041667e-07. Max volume = 8e-05.  Total volume = 0.4154667.  Cell volumes OK.
    Mesh non-orthogonality Max: 18.43581 average: 1.866123
    Non-orthogonality check OK.
    Face pyramids OK.
    Max skewness = 1 OK.
    Mesh geometry OK.
Mesh OK.
ExecutionTime = 131.41 s  ClockTime = 132 s

Time = 0.0285
PIMPLE: iteration 1
inverseDistance : detected 2 mesh regions
    zone:0 nCells:138000  voxels:(100 10 1) bb:(-2 1 -0.001) (2 1.5 0.001)
    zone:1 nCells:17200  voxels:(100 10 1) bb:(-2 1 -0.001) (2 1.5 0.001)
Overset analysis : nCells : 155200
    calculated   : 145200
    interpolated : 8692 (from local:8692  mixed local/remote:0  remote:0)
    hole         : 1308

PIMPLE: iteration 2
    Point usage OK.
    Upper triangular ordering OK.
    Topological cell zip-up check OK.
    Face vertices OK.
    Face-face connectivity OK.
    Mesh topology OK.
    Boundary openness (-1.228392e-20 -3.025959e-22 5.638287e-14) OK.
    Max cell openness = 1.794542e-16 OK.
    Max aspect ratio = 200 OK.
    Minimum face area = 1.208333e-05. Maximum face area = 0.04.  Face area magnitudes OK.
    Min volume = 6.041667e-07. Max volume = 8e-05.  Total volume = 0.4154667.  Cell volumes OK.
    Mesh non-orthogonality Max: 18.43581 average: 1.866123
    Non-orthogonality check OK.
    Face pyramids OK.
    Max skewness = 1 OK.
    Mesh geometry OK.
Mesh OK.
ExecutionTime = 133.77 s  ClockTime = 134 s

Time = 0.029
PIMPLE: iteration 1
inverseDistance : detected 2 mesh regions
    zone:0 nCells:138000  voxels:(100 10 1) bb:(-2 1 -0.001) (2 1.5 0.001)
    zone:1 nCells:17200  voxels:(100 10 1) bb:(-2 1 -0.001) (2 1.5 0.001)
Overset analysis : nCells : 155200
    calculated   : 145200
    interpolated : 8696 (from local:8696  mixed local/remote:0  remote:0)
    hole         : 1304

PIMPLE: iteration 2
    Point usage OK.
    Upper triangular ordering OK.
    Topological cell zip-up check OK.
    Face vertices OK.
    Face-face connectivity OK.
    Mesh topology OK.
    Boundary openness (-1.203241e-20 -3.025959e-22 5.638253e-14) OK.
    Max cell openness = 1.794542e-16 OK.
    Max aspect ratio = 200 OK.
    Minimum face area = 1.208333e-05. Maximum face area = 0.04.  Face area magnitudes OK.
    Min volume = 6.041667e-07. Max volume = 8e-05.  Total volume = 0.4154667.  Cell volumes OK.
    Mesh non-orthogonality Max: 18.43581 average: 1.866123
    Non-orthogonality check OK.
    Face pyramids OK.
    Max skewness = 1 OK.
    Mesh geometry OK.
Mesh OK.
ExecutionTime = 136.12 s  ClockTime = 136 s

Time = 0.0295
PIMPLE: iteration 1
inverseDistance : detected 2 mesh regions
    zone:0 nCells:138000  voxels:(100 10 1) bb:(-2 1 -0.001) (2 1.5 0.001)
    zone:1 nCells:17200  voxels:(100 10 1) bb:(-2 1 -0.001) (2 1.5 0.001)
Overset analysis : nCells : 155200
    calculated   : 145200
    interpolated : 8696 (from local:8696  mixed local/remote:0  remote:0)
    hole         : 1304

PIMPLE: iteration 2
    Point usage OK.
    Upper triangular ordering OK.
    Topological cell zip-up check OK.
    Face vertices OK.
    Face-face connectivity OK.
    Mesh topology OK.
    Boundary openness (-1.253542e-20 -3.025959e-22 5.637949e-14) OK.
    Max cell openness = 1.794542e-16 OK.
    Max aspect ratio = 200 OK.
    Minimum face area = 1.208333e-05. Maximum face area = 0.04.  Face area magnitudes OK.
    Min volume = 6.041667e-07. Max volume = 8e-05.  Total volume = 0.4154667.  Cell volumes OK.
    Mesh non-orthogonality Max: 18.43581 average: 1.866123
    Non-orthogonality check OK.
    Face pyramids OK.
    Max skewness = 1 OK.
    Mesh geometry OK.
Mesh OK.
ExecutionTime = 138.63 s  ClockTime = 139 s

Time = 0.03
PIMPLE: iteration 1
inverseDistance : detected 2 mesh regions
    zone:0 nCells:138000  voxels:(100 10 1) bb:(-2 1 -0.001) (2 1.5 0.001)
    zone:1 nCells:17200  voxels:(100 10 1) bb:(-2 1 -0.001) (2 1.5 0.001)
Overset analysis : nCells : 155200
    calculated   : 145200
    interpolated : 8696 (from local:8696  mixed local/remote:0  remote:0)
    hole         : 1304

PIMPLE: iteration 2
    Point usage OK.
    Upper triangular ordering OK.
    Topological cell zip-up check OK.
    Face vertices OK.
    Face-face connectivity OK.
    Mesh topology OK.
    Boundary openness (-1.25983e-20 -3.025959e-22 5.637986e-14) OK.
    Max cell openness = 1.794542e-16 OK.
    Max aspect ratio = 200 OK.
    Minimum face area = 1.208333e-05. Maximum face area = 0.04.  Face area magnitudes OK.
    Min volume = 6.041667e-07. Max volume = 8e-05.  Total volume = 0.4154667.  Cell volumes OK.
    Mesh non-orthogonality Max: 18.43581 average: 1.866123
    Non-orthogonality check OK.
    Face pyramids OK.
    Max skewness = 1 OK.
    Mesh geometry OK.
Mesh OK.
ExecutionTime = 141.25 s  ClockTime = 141 s

Time = 0.0305
PIMPLE: iteration 1
inverseDistance : detected 2 mesh regions
    zone:0 nCells:138000  voxels:(100 10 1) bb:(-2 1 -0.001) (2 1.5 0.001)
    zone:1 nCells:17200  voxels:(100 10 1) bb:(-2 1 -0.001) (2 1.5 0.001)
Overset analysis : nCells : 155200
    calculated   : 145200
    interpolated : 8696 (from local:8696  mixed local/remote:0  remote:0)
    hole         : 1304

PIMPLE: iteration 2
    Point usage OK.
    Upper triangular ordering OK.
    Topological cell zip-up check OK.
    Face vertices OK.
    Face-face connectivity OK.
    Mesh topology OK.
    Boundary openness (-1.278693e-20 -3.025959e-22 5.637715e-14) OK.
    Max cell openness = 1.794542e-16 OK.
    Max aspect ratio = 200 OK.
    Minimum face area = 1.208333e-05. Maximum face area = 0.04.  Face area magnitudes OK.
    Min volume = 6.041667e-07. Max volume = 8e-05.  Total volume = 0.4154667.  Cell volumes OK.
    Mesh non-orthogonality Max: 18.43581 average: 1.866123
    Non-orthogonality check OK.
    Face pyramids OK.
    Max skewness = 1 OK.
    Mesh geometry OK.
Mesh OK.
ExecutionTime = 143.63 s  ClockTime = 144 s

Time = 0.031
PIMPLE: iteration 1
inverseDistance : detected 2 mesh regions
    zone:0 nCells:138000  voxels:(100 10 1) bb:(-2 1 -0.001) (2 1.5 0.001)
    zone:1 nCells:17200  voxels:(100 10 1) bb:(-2 1 -0.001) (2 1.5 0.001)
Overset analysis : nCells : 155200
    calculated   : 145200
    interpolated : 8696 (from local:8696  mixed local/remote:0  remote:0)
    hole         : 1304

PIMPLE: iteration 2
    Point usage OK.
    Upper triangular ordering OK.
    Topological cell zip-up check OK.
    Face vertices OK.
    Face-face connectivity OK.
    Mesh topology OK.
    Boundary openness (-1.253542e-20 -3.025959e-22 5.637951e-14) OK.
    Max cell openness = 1.794542e-16 OK.
    Max aspect ratio = 200 OK.
    Minimum face area = 1.208333e-05. Maximum face area = 0.04.  Face area magnitudes OK.
    Min volume = 6.041667e-07. Max volume = 8e-05.  Total volume = 0.4154667.  Cell volumes OK.
    Mesh non-orthogonality Max: 18.43581 average: 1.866123
    Non-orthogonality check OK.
    Face pyramids OK.
    Max skewness = 1 OK.
    Mesh geometry OK.
Mesh OK.
ExecutionTime = 145.93 s  ClockTime = 146 s

Time = 0.0315
PIMPLE: iteration 1
inverseDistance : detected 2 mesh regions
    zone:0 nCells:138000  voxels:(100 10 1) bb:(-2 1 -0.001) (2 1.5 0.001)
    zone:1 nCells:17200  voxels:(100 10 1) bb:(-2 1 -0.001) (2 1.5 0.001)
Overset analysis : nCells : 155200
    calculated   : 145200
    interpolated : 8696 (from local:8696  mixed local/remote:0  remote:0)
    hole         : 1304

PIMPLE: iteration 2
    Point usage OK.
    Upper triangular ordering OK.
    Topological cell zip-up check OK.
    Face vertices OK.
    Face-face connectivity OK.
    Mesh topology OK.
    Boundary openness (-1.253542e-20 -3.025959e-22 5.637972e-14) OK.
    Max cell openness = 1.794542e-16 OK.
    Max aspect ratio = 200 OK.
    Minimum face area = 1.208333e-05. Maximum face area = 0.04.  Face area magnitudes OK.
    Min volume = 6.041667e-07. Max volume = 8e-05.  Total volume = 0.4154667.  Cell volumes OK.
    Mesh non-orthogonality Max: 18.43581 average: 1.866123
    Non-orthogonality check OK.
    Face pyramids OK.
    Max skewness = 1 OK.
    Mesh geometry OK.
Mesh OK.
ExecutionTime = 148.27 s  ClockTime = 148 s

Time = 0.032
PIMPLE: iteration 1
inverseDistance : detected 2 mesh regions
    zone:0 nCells:138000  voxels:(100 10 1) bb:(-2 1 -0.001) (2 1.5 0.001)
    zone:1 nCells:17200  voxels:(100 10 1) bb:(-2 1 -0.001) (2 1.5 0.001)
Overset analysis : nCells : 155200
    calculated   : 145200
    interpolated : 8696 (from local:8696  mixed local/remote:0  remote:0)
    hole         : 1304

PIMPLE: iteration 2
    Point usage OK.
    Upper triangular ordering OK.
    Topological cell zip-up check OK.
    Face vertices OK.
    Face-face connectivity OK.
    Mesh topology OK.
    Boundary openness (-1.278693e-20 -3.025959e-22 5.638037e-14) OK.
    Max cell openness = 1.794542e-16 OK.
    Max aspect ratio = 200 OK.
    Minimum face area = 1.208333e-05. Maximum face area = 0.04.  Face area magnitudes OK.
    Min volume = 6.041667e-07. Max volume = 8e-05.  Total volume = 0.4154667.  Cell volumes OK.
    Mesh non-orthogonality Max: 18.43581 average: 1.866123
    Non-orthogonality check OK.
    Face pyramids OK.
    Max skewness = 1 OK.
    Mesh geometry OK.
Mesh OK.
ExecutionTime = 150.65 s  ClockTime = 151 s

Time = 0.0325
PIMPLE: iteration 1
inverseDistance : detected 2 mesh regions
    zone:0 nCells:138000  voxels:(100 10 1) bb:(-2 1 -0.001) (2 1.5 0.001)
    zone:1 nCells:17200  voxels:(100 10 1) bb:(-2 1 -0.001) (2 1.5 0.001)
Overset analysis : nCells : 155200
    calculated   : 145200
    interpolated : 8696 (from local:8696  mixed local/remote:0  remote:0)
    hole         : 1304

PIMPLE: iteration 2
    Point usage OK.
    Upper triangular ordering OK.
    Topological cell zip-up check OK.
    Face vertices OK.
    Face-face connectivity OK.
    Mesh topology OK.
    Boundary openness (-1.228392e-20 -3.025959e-22 5.637818e-14) OK.
    Max cell openness = 1.794542e-16 OK.
    Max aspect ratio = 200 OK.
    Minimum face area = 1.208333e-05. Maximum face area = 0.04.  Face area magnitudes OK.
    Min volume = 6.041667e-07. Max volume = 8e-05.  Total volume = 0.4154667.  Cell volumes OK.
    Mesh non-orthogonality Max: 18.43581 average: 1.866123
    Non-orthogonality check OK.
    Face pyramids OK.
    Max skewness = 1 OK.
    Mesh geometry OK.
Mesh OK.
ExecutionTime = 153.08 s  ClockTime = 153 s

Time = 0.033
PIMPLE: iteration 1
inverseDistance : detected 2 mesh regions
    zone:0 nCells:138000  voxels:(100 10 1) bb:(-2 1 -0.001) (2 1.5 0.001)
    zone:1 nCells:17200  voxels:(100 10 1) bb:(-2 1 -0.001) (2 1.5 0.001)
Overset analysis : nCells : 155200
    calculated   : 145200
    interpolated : 8696 (from local:8696  mixed local/remote:0  remote:0)
    hole         : 1304

PIMPLE: iteration 2
    Point usage OK.
    Upper triangular ordering OK.
    Topological cell zip-up check OK.
    Face vertices OK.
    Face-face connectivity OK.
    Mesh topology OK.
    Boundary openness (-1.17809e-20 -3.025959e-22 5.637913e-14) OK.
    Max cell openness = 1.794542e-16 OK.
    Max aspect ratio = 200 OK.
    Minimum face area = 1.208333e-05. Maximum face area = 0.04.  Face area magnitudes OK.
    Min volume = 6.041667e-07. Max volume = 8e-05.  Total volume = 0.4154667.  Cell volumes OK.
    Mesh non-orthogonality Max: 18.43581 average: 1.866123
    Non-orthogonality check OK.
    Face pyramids OK.
    Max skewness = 1 OK.
    Mesh geometry OK.
Mesh OK.
ExecutionTime = 155.47 s  ClockTime = 156 s

Time = 0.0335
PIMPLE: iteration 1
inverseDistance : detected 2 mesh regions
    zone:0 nCells:138000  voxels:(100 10 1) bb:(-2 1 -0.001) (2 1.5 0.001)
    zone:1 nCells:17200  voxels:(100 10 1) bb:(-2 1 -0.001) (2 1.5 0.001)
Overset analysis : nCells : 155200
    calculated   : 145200
    interpolated : 8696 (from local:8696  mixed local/remote:0  remote:0)
    hole         : 1304

PIMPLE: iteration 2
    Point usage OK.
    Upper triangular ordering OK.
    Topological cell zip-up check OK.
    Face vertices OK.
    Face-face connectivity OK.
    Mesh topology OK.
    Boundary openness (-1.240967e-20 -3.025959e-22 5.637917e-14) OK.
    Max cell openness = 1.794542e-16 OK.
    Max aspect ratio = 200 OK.
    Minimum face area = 1.208333e-05. Maximum face area = 0.04.  Face area magnitudes OK.
    Min volume = 6.041667e-07. Max volume = 8e-05.  Total volume = 0.4154667.  Cell volumes OK.
    Mesh non-orthogonality Max: 18.43581 average: 1.866123
    Non-orthogonality check OK.
    Face pyramids OK.
    Max skewness = 1 OK.
    Mesh geometry OK.
Mesh OK.
ExecutionTime = 157.92 s  ClockTime = 158 s

Time = 0.034
PIMPLE: iteration 1
inverseDistance : detected 2 mesh regions
    zone:0 nCells:138000  voxels:(100 10 1) bb:(-2 1 -0.001) (2 1.5 0.001)
    zone:1 nCells:17200  voxels:(100 10 1) bb:(-2 1 -0.001) (2 1.5 0.001)
Overset analysis : nCells : 155200
    calculated   : 145200
    interpolated : 8696 (from local:8696  mixed local/remote:0  remote:0)
    hole         : 1304

PIMPLE: iteration 2
    Point usage OK.
    Upper triangular ordering OK.
    Topological cell zip-up check OK.
    Face vertices OK.
    Face-face connectivity OK.
    Mesh topology OK.
    Boundary openness (-1.253542e-20 -3.025959e-22 5.637992e-14) OK.
    Max cell openness = 1.794542e-16 OK.
    Max aspect ratio = 200 OK.
    Minimum face area = 1.208333e-05. Maximum face area = 0.04.  Face area magnitudes OK.
    Min volume = 6.041667e-07. Max volume = 8e-05.  Total volume = 0.4154667.  Cell volumes OK.
    Mesh non-orthogonality Max: 18.43581 average: 1.866123
    Non-orthogonality check OK.
    Face pyramids OK.
    Max skewness = 1 OK.
    Mesh geometry OK.
Mesh OK.
ExecutionTime = 160.24 s  ClockTime = 160 s

Time = 0.0345
PIMPLE: iteration 1
inverseDistance : detected 2 mesh regions
    zone:0 nCells:138000  voxels:(100 10 1) bb:(-2 1 -0.001) (2 1.5 0.001)
    zone:1 nCells:17200  voxels:(100 10 1) bb:(-2 1 -0.001) (2 1.5 0.001)
Overset analysis : nCells : 155200
    calculated   : 145200
    interpolated : 8696 (from local:8696  mixed local/remote:0  remote:0)
    hole         : 1304

PIMPLE: iteration 2
    Point usage OK.
    Upper triangular ordering OK.
    Topological cell zip-up check OK.
    Face vertices OK.
    Face-face connectivity OK.
    Mesh topology OK.
    Boundary openness (-1.278693e-20 -3.025959e-22 5.637663e-14) OK.
    Max cell openness = 1.794542e-16 OK.
    Max aspect ratio = 200 OK.
    Minimum face area = 1.208333e-05. Maximum face area = 0.04.  Face area magnitudes OK.
    Min volume = 6.041667e-07. Max volume = 8e-05.  Total volume = 0.4154667.  Cell volumes OK.
    Mesh non-orthogonality Max: 18.43581 average: 1.866123
    Non-orthogonality check OK.
    Face pyramids OK.
    Max skewness = 1 OK.
    Mesh geometry OK.
Mesh OK.
ExecutionTime = 162.61 s  ClockTime = 163 s

Time = 0.035
PIMPLE: iteration 1
inverseDistance : detected 2 mesh regions
    zone:0 nCells:138000  voxels:(100 10 1) bb:(-2 1 -0.001) (2 1.5 0.001)
    zone:1 nCells:17200  voxels:(100 10 1) bb:(-2 1 -0.001) (2 1.5 0.001)
Overset analysis : nCells : 155200
    calculated   : 145040
    interpolated : 8536 (from local:8536  mixed local/remote:0  remote:0)
    hole         : 1624

PIMPLE: iteration 2
    Point usage OK.
    Upper triangular ordering OK.
    Topological cell zip-up check OK.
    Face vertices OK.
    Face-face connectivity OK.
    Mesh topology OK.
    Boundary openness (-1.253542e-20 -3.025959e-22 5.63804e-14) OK.
    Max cell openness = 1.794542e-16 OK.
    Max aspect ratio = 200 OK.
    Minimum face area = 1.208333e-05. Maximum face area = 0.04.  Face area magnitudes OK.
    Min volume = 6.041667e-07. Max volume = 8e-05.  Total volume = 0.4154667.  Cell volumes OK.
    Mesh non-orthogonality Max: 18.43581 average: 1.866123
    Non-orthogonality check OK.
    Face pyramids OK.
    Max skewness = 1 OK.
    Mesh geometry OK.
Mesh OK.
ExecutionTime = 165.11 s  ClockTime = 165 s

Time = 0.0355
PIMPLE: iteration 1
inverseDistance : detected 2 mesh regions
    zone:0 nCells:138000  voxels:(100 10 1) bb:(-2 1 -0.001) (2 1.5 0.001)
    zone:1 nCells:17200  voxels:(100 10 1) bb:(-2 1 -0.001) (2 1.5 0.001)
Overset analysis : nCells : 155200
    calculated   : 145040
    interpolated : 8536 (from local:8536  mixed local/remote:0  remote:0)
    hole         : 1624

PIMPLE: iteration 2
[...]
    Mesh topology OK.
    Boundary openness (-1.203241e-20 -3.025959e-22 5.637999e-14) OK.
    Max cell openness = 1.794542e-16 OK.
    Max aspect ratio = 200 OK.
    Minimum face area = 1.208333e-05. Maximum face area = 0.04.  Face area magnitudes OK.
    Min volume = 6.041667e-07. Max volume = 8e-05.  Total volume = 0.4154667.  Cell volumes OK.
    Mesh non-orthogonality Max: 18.43581 average: 1.866123
    Non-orthogonality check OK.
    Face pyramids OK.
    Max skewness = 1 OK.
    Mesh geometry OK.
Mesh OK.
ExecutionTime = 409.89 s  ClockTime = 410 s

Time = 0.0895
PIMPLE: iteration 1
inverseDistance : detected 2 mesh regions
    zone:0 nCells:138000  voxels:(100 10 1) bb:(-2 1 -0.001) (2 1.5 0.001)
    zone:1 nCells:17200  voxels:(100 10 1) bb:(-2 1 -0.001) (2 1.5 0.001)
Overset analysis : nCells : 155200
    calculated   : 144240
    interpolated : 7736 (from local:7736  mixed local/remote:0  remote:0)
    hole         : 3224

PIMPLE: iteration 2
    Point usage OK.
    Upper triangular ordering OK.
    Topological cell zip-up check OK.
    Face vertices OK.
    Face-face connectivity OK.
    Mesh topology OK.
    Boundary openness (-1.203241e-20 -3.025959e-22 5.637936e-14) OK.
    Max cell openness = 1.794542e-16 OK.
    Max aspect ratio = 200 OK.
    Minimum face area = 1.208333e-05. Maximum face area = 0.04.  Face area magnitudes OK.
    Min volume = 6.041667e-07. Max volume = 8e-05.  Total volume = 0.4154667.  Cell volumes OK.
    Mesh non-orthogonality Max: 18.43581 average: 1.866123
    Non-orthogonality check OK.
    Face pyramids OK.
    Max skewness = 1 OK.
    Mesh geometry OK.
Mesh OK.
ExecutionTime = 412.13 s  ClockTime = 412 s

Time = 0.09
PIMPLE: iteration 1
inverseDistance : detected 2 mesh regions
    zone:0 nCells:138000  voxels:(100 10 1) bb:(-2 1 -0.001) (2 1.5 0.001)
    zone:1 nCells:17200  voxels:(100 10 1) bb:(-2 1 -0.001) (2 1.5 0.001)
Overset analysis : nCells : 155200
    calculated   : 144240
    interpolated : 7736 (from local:7736  mixed local/remote:0  remote:0)
    hole         : 3224

PIMPLE: iteration 2
    Point usage OK.
    Upper triangular ordering OK.
    Topological cell zip-up check OK.
    Face vertices OK.
    Face-face connectivity OK.
    Mesh topology OK.
    Boundary openness (-1.228392e-20 -3.025959e-22 5.6379e-14) OK.
    Max cell openness = 1.794542e-16 OK.
    Max aspect ratio = 200 OK.
    Minimum face area = 1.208333e-05. Maximum face area = 0.04.  Face area magnitudes OK.
    Min volume = 6.041667e-07. Max volume = 8e-05.  Total volume = 0.4154667.  Cell volumes OK.
    Mesh non-orthogonality Max: 18.43581 average: 1.866123
    Non-orthogonality check OK.
    Face pyramids OK.
    Max skewness = 1 OK.
    Mesh geometry OK.
Mesh OK.
ExecutionTime = 414.4 s  ClockTime = 415 s

Time = 0.0905
PIMPLE: iteration 1
inverseDistance : detected 2 mesh regions
    zone:0 nCells:138000  voxels:(100 10 1) bb:(-2 1 -0.001) (2 1.5 0.001)
    zone:1 nCells:17200  voxels:(100 10 1) bb:(-2 1 -0.001) (2 1.5 0.001)
Overset analysis : nCells : 155200
    calculated   : 144240
    interpolated : 7736 (from local:7736  mixed local/remote:0  remote:0)
    hole         : 3224

PIMPLE: iteration 2
    Point usage OK.
    Upper triangular ordering OK.
    Topological cell zip-up check OK.
    Face vertices OK.
    Face-face connectivity OK.
    Mesh topology OK.
    Boundary openness (-1.215816e-20 -3.025959e-22 5.63807e-14) OK.
    Max cell openness = 1.794542e-16 OK.
    Max aspect ratio = 200 OK.
    Minimum face area = 1.208333e-05. Maximum face area = 0.04.  Face area magnitudes OK.
    Min volume = 6.041667e-07. Max volume = 8e-05.  Total volume = 0.4154667.  Cell volumes OK.
    Mesh non-orthogonality Max: 18.43581 average: 1.866123
    Non-orthogonality check OK.
    Face pyramids OK.
    Max skewness = 1 OK.
    Mesh geometry OK.
Mesh OK.
ExecutionTime = 416.67 s  ClockTime = 417 s

Time = 0.091
PIMPLE: iteration 1
inverseDistance : detected 2 mesh regions
    zone:0 nCells:138000  voxels:(100 10 1) bb:(-2 1 -0.001) (2 1.5 0.001)
    zone:1 nCells:17200  voxels:(100 10 1) bb:(-2 1 -0.001) (2 1.5 0.001)
Overset analysis : nCells : 155200
    calculated   : 144240
    interpolated : 7736 (from local:7736  mixed local/remote:0  remote:0)
    hole         : 3224

PIMPLE: iteration 2
    Point usage OK.
    Upper triangular ordering OK.
    Topological cell zip-up check OK.
    Face vertices OK.
    Face-face connectivity OK.
    Mesh topology OK.
    Boundary openness (-1.253542e-20 -3.025959e-22 5.638203e-14) OK.
    Max cell openness = 1.794542e-16 OK.
    Max aspect ratio = 200 OK.
    Minimum face area = 1.208333e-05. Maximum face area = 0.04.  Face area magnitudes OK.
    Min volume = 6.041667e-07. Max volume = 8e-05.  Total volume = 0.4154667.  Cell volumes OK.
    Mesh non-orthogonality Max: 18.43581 average: 1.866123
    Non-orthogonality check OK.
    Face pyramids OK.
    Max skewness = 1 OK.
    Mesh geometry OK.
Mesh OK.
ExecutionTime = 418.94 s  ClockTime = 419 s

Time = 0.0915
PIMPLE: iteration 1
inverseDistance : detected 2 mesh regions
    zone:0 nCells:138000  voxels:(100 10 1) bb:(-2 1 -0.001) (2 1.5 0.001)
    zone:1 nCells:17200  voxels:(100 10 1) bb:(-2 1 -0.001) (2 1.5 0.001)
Overset analysis : nCells : 155200
    calculated   : 144240
    interpolated : 7736 (from local:7736  mixed local/remote:0  remote:0)
    hole         : 3224

PIMPLE: iteration 2
    Point usage OK.
    Upper triangular ordering OK.
    Topological cell zip-up check OK.
    Face vertices OK.
    Face-face connectivity OK.
    Mesh topology OK.
    Boundary openness (-1.278693e-20 -3.025959e-22 5.637826e-14) OK.
    Max cell openness = 1.794542e-16 OK.
    Max aspect ratio = 200 OK.
    Minimum face area = 1.208333e-05. Maximum face area = 0.04.  Face area magnitudes OK.
    Min volume = 6.041667e-07. Max volume = 8e-05.  Total volume = 0.4154667.  Cell volumes OK.
    Mesh non-orthogonality Max: 18.43581 average: 1.866123
    Non-orthogonality check OK.
    Face pyramids OK.
    Max skewness = 1 OK.
    Mesh geometry OK.
Mesh OK.
ExecutionTime = 421.04 s  ClockTime = 421 s

Time = 0.092
PIMPLE: iteration 1
inverseDistance : detected 2 mesh regions
    zone:0 nCells:138000  voxels:(100 10 1) bb:(-2 1 -0.001) (2 1.5 0.001)
    zone:1 nCells:17200  voxels:(100 10 1) bb:(-2 1 -0.001) (2 1.5 0.001)
Overset analysis : nCells : 155200
    calculated   : 144240
    interpolated : 7736 (from local:7736  mixed local/remote:0  remote:0)
    hole         : 3224

PIMPLE: iteration 2
    Point usage OK.
    Upper triangular ordering OK.
    Topological cell zip-up check OK.
    Face vertices OK.
    Face-face connectivity OK.
    Mesh topology OK.
    Boundary openness (-1.303844e-20 -3.025959e-22 5.63808e-14) OK.
    Max cell openness = 1.794542e-16 OK.
    Max aspect ratio = 200 OK.
    Minimum face area = 1.208333e-05. Maximum face area = 0.04.  Face area magnitudes OK.
    Min volume = 6.041667e-07. Max volume = 8e-05.  Total volume = 0.4154667.  Cell volumes OK.
    Mesh non-orthogonality Max: 18.43581 average: 1.866123
    Non-orthogonality check OK.
    Face pyramids OK.
    Max skewness = 1 OK.
    Mesh geometry OK.
Mesh OK.
ExecutionTime = 423.17 s  ClockTime = 423 s

Time = 0.0925
PIMPLE: iteration 1
inverseDistance : detected 2 mesh regions
    zone:0 nCells:138000  voxels:(100 10 1) bb:(-2 1 -0.001) (2 1.5 0.001)
    zone:1 nCells:17200  voxels:(100 10 1) bb:(-2 1 -0.001) (2 1.5 0.001)
Overset analysis : nCells : 155200
    calculated   : 144240
    interpolated : 7736 (from local:7736  mixed local/remote:0  remote:0)
    hole         : 3224

PIMPLE: iteration 2
    Point usage OK.
    Upper triangular ordering OK.
    Topological cell zip-up check OK.
    Face vertices OK.
    Face-face connectivity OK.
    Mesh topology OK.
    Boundary openness (-1.203241e-20 -3.025959e-22 5.638199e-14) OK.
    Max cell openness = 1.794542e-16 OK.
    Max aspect ratio = 200 OK.
    Minimum face area = 1.208333e-05. Maximum face area = 0.04.  Face area magnitudes OK.
    Min volume = 6.041667e-07. Max volume = 8e-05.  Total volume = 0.4154667.  Cell volumes OK.
    Mesh non-orthogonality Max: 18.43581 average: 1.866123
    Non-orthogonality check OK.
    Face pyramids OK.
    Max skewness = 1 OK.
    Mesh geometry OK.
Mesh OK.
ExecutionTime = 425.32 s  ClockTime = 426 s

Time = 0.093
PIMPLE: iteration 1
inverseDistance : detected 2 mesh regions
    zone:0 nCells:138000  voxels:(100 10 1) bb:(-2 1 -0.001) (2 1.5 0.001)
    zone:1 nCells:17200  voxels:(100 10 1) bb:(-2 1 -0.001) (2 1.5 0.001)
Overset analysis : nCells : 155200
    calculated   : 144080
    interpolated : 7576 (from local:7576  mixed local/remote:0  remote:0)
    hole         : 3544

PIMPLE: iteration 2
    Point usage OK.
    Upper triangular ordering OK.
    Topological cell zip-up check OK.
    Face vertices OK.
    Face-face connectivity OK.
    Mesh topology OK.
    Boundary openness (-1.228392e-20 -3.025959e-22 5.638151e-14) OK.
    Max cell openness = 1.794542e-16 OK.
    Max aspect ratio = 200 OK.
    Minimum face area = 1.208333e-05. Maximum face area = 0.04.  Face area magnitudes OK.
    Min volume = 6.041667e-07. Max volume = 8e-05.  Total volume = 0.4154667.  Cell volumes OK.
    Mesh non-orthogonality Max: 18.43581 average: 1.866123
    Non-orthogonality check OK.
    Face pyramids OK.
    Max skewness = 1 OK.
    Mesh geometry OK.
Mesh OK.
ExecutionTime = 427.58 s  ClockTime = 428 s

Time = 0.0935
PIMPLE: iteration 1
inverseDistance : detected 2 mesh regions
    zone:0 nCells:138000  voxels:(100 10 1) bb:(-2 1 -0.001) (2 1.5 0.001)
    zone:1 nCells:17200  voxels:(100 10 1) bb:(-2 1 -0.001) (2 1.5 0.001)
Overset analysis : nCells : 155200
    calculated   : 144080
    interpolated : 7576 (from local:7576  mixed local/remote:0  remote:0)
    hole         : 3544

PIMPLE: iteration 2
    Point usage OK.
    Upper triangular ordering OK.
    Topological cell zip-up check OK.
    Face vertices OK.
    Face-face connectivity OK.
    Mesh topology OK.
    Boundary openness (-1.203241e-20 -3.025959e-22 5.637911e-14) OK.
    Max cell openness = 1.794542e-16 OK.
    Max aspect ratio = 200 OK.
    Minimum face area = 1.208333e-05. Maximum face area = 0.04.  Face area magnitudes OK.
    Min volume = 6.041667e-07. Max volume = 8e-05.  Total volume = 0.4154667.  Cell volumes OK.
    Mesh non-orthogonality Max: 18.43581 average: 1.866123
    Non-orthogonality check OK.
    Face pyramids OK.
    Max skewness = 1 OK.
    Mesh geometry OK.
Mesh OK.
ExecutionTime = 429.72 s  ClockTime = 430 s

Time = 0.094
PIMPLE: iteration 1
inverseDistance : detected 2 mesh regions
    zone:0 nCells:138000  voxels:(100 10 1) bb:(-2 1 -0.001) (2 1.5 0.001)
    zone:1 nCells:17200  voxels:(100 10 1) bb:(-2 1 -0.001) (2 1.5 0.001)
Overset analysis : nCells : 155200
    calculated   : 144080
    interpolated : 7576 (from local:7576  mixed local/remote:0  remote:0)
    hole         : 3544

PIMPLE: iteration 2
    Point usage OK.
    Upper triangular ordering OK.
    Topological cell zip-up check OK.
    Face vertices OK.
    Face-face connectivity OK.
    Mesh topology OK.
    Boundary openness (-1.240967e-20 -3.025959e-22 5.637894e-14) OK.
    Max cell openness = 1.794542e-16 OK.
    Max aspect ratio = 200 OK.
    Minimum face area = 1.208333e-05. Maximum face area = 0.04.  Face area magnitudes OK.
    Min volume = 6.041667e-07. Max volume = 8e-05.  Total volume = 0.4154667.  Cell volumes OK.
    Mesh non-orthogonality Max: 18.43581 average: 1.866123
    Non-orthogonality check OK.
    Face pyramids OK.
    Max skewness = 1 OK.
    Mesh geometry OK.
Mesh OK.
ExecutionTime = 431.91 s  ClockTime = 432 s

Time = 0.0945
PIMPLE: iteration 1
inverseDistance : detected 2 mesh regions
    zone:0 nCells:138000  voxels:(100 10 1) bb:(-2 1 -0.001) (2 1.5 0.001)
    zone:1 nCells:17200  voxels:(100 10 1) bb:(-2 1 -0.001) (2 1.5 0.001)
Overset analysis : nCells : 155200
    calculated   : 144080
    interpolated : 7576 (from local:7576  mixed local/remote:0  remote:0)
    hole         : 3544

PIMPLE: iteration 2
    Point usage OK.
    Upper triangular ordering OK.
    Topological cell zip-up check OK.
    Face vertices OK.
    Face-face connectivity OK.
    Mesh topology OK.
    Boundary openness (-1.102637e-20 -3.025959e-22 5.638395e-14) OK.
    Max cell openness = 1.794542e-16 OK.
    Max aspect ratio = 200 OK.
    Minimum face area = 1.208333e-05. Maximum face area = 0.04.  Face area magnitudes OK.
    Min volume = 6.041667e-07. Max volume = 8e-05.  Total volume = 0.4154667.  Cell volumes OK.
    Mesh non-orthogonality Max: 18.43581 average: 1.866123
    Non-orthogonality check OK.
    Face pyramids OK.
    Max skewness = 1 OK.
    Mesh geometry OK.
Mesh OK.
ExecutionTime = 434.19 s  ClockTime = 435 s

Time = 0.095
PIMPLE: iteration 1
inverseDistance : detected 2 mesh regions
    zone:0 nCells:138000  voxels:(100 10 1) bb:(-2 1 -0.001) (2 1.5 0.001)
    zone:1 nCells:17200  voxels:(100 10 1) bb:(-2 1 -0.001) (2 1.5 0.001)
Overset analysis : nCells : 155200
    calculated   : 144080
    interpolated : 7576 (from local:7576  mixed local/remote:0  remote:0)
    hole         : 3544

PIMPLE: iteration 2
    Point usage OK.
    Upper triangular ordering OK.
    Topological cell zip-up check OK.
    Face vertices OK.
    Face-face connectivity OK.
    Mesh topology OK.
    Boundary openness (-1.253542e-20 -3.025959e-22 5.638177e-14) OK.
    Max cell openness = 1.794542e-16 OK.
    Max aspect ratio = 200 OK.
    Minimum face area = 1.208333e-05. Maximum face area = 0.04.  Face area magnitudes OK.
    Min volume = 6.041667e-07. Max volume = 8e-05.  Total volume = 0.4154667.  Cell volumes OK.
    Mesh non-orthogonality Max: 18.43581 average: 1.866123
    Non-orthogonality check OK.
    Face pyramids OK.
    Max skewness = 1 OK.
    Mesh geometry OK.
Mesh OK.
ExecutionTime = 436.47 s  ClockTime = 437 s

Time = 0.0955
PIMPLE: iteration 1
inverseDistance : detected 2 mesh regions
    zone:0 nCells:138000  voxels:(100 10 1) bb:(-2 1 -0.001) (2 1.5 0.001)
    zone:1 nCells:17200  voxels:(100 10 1) bb:(-2 1 -0.001) (2 1.5 0.001)
Overset analysis : nCells : 155200
    calculated   : 144080
    interpolated : 7576 (from local:7576  mixed local/remote:0  remote:0)
    hole         : 3544

PIMPLE: iteration 2
    Point usage OK.
    Upper triangular ordering OK.
    Topological cell zip-up check OK.
    Face vertices OK.
    Face-face connectivity OK.
    Mesh topology OK.
    Boundary openness (-1.278693e-20 -3.025959e-22 5.637962e-14) OK.
    Max cell openness = 1.794542e-16 OK.
    Max aspect ratio = 200 OK.
    Minimum face area = 1.208333e-05. Maximum face area = 0.04.  Face area magnitudes OK.
    Min volume = 6.041667e-07. Max volume = 8e-05.  Total volume = 0.4154667.  Cell volumes OK.
    Mesh non-orthogonality Max: 18.43581 average: 1.866123
    Non-orthogonality check OK.
    Face pyramids OK.
    Max skewness = 1 OK.
    Mesh geometry OK.
Mesh OK.
ExecutionTime = 438.76 s  ClockTime = 439 s

Time = 0.096
PIMPLE: iteration 1
inverseDistance : detected 2 mesh regions
    zone:0 nCells:138000  voxels:(100 10 1) bb:(-2 1 -0.001) (2 1.5 0.001)
    zone:1 nCells:17200  voxels:(100 10 1) bb:(-2 1 -0.001) (2 1.5 0.001)
Overset analysis : nCells : 155200
    calculated   : 144080
    interpolated : 7576 (from local:7576  mixed local/remote:0  remote:0)
    hole         : 3544

PIMPLE: iteration 2
    Point usage OK.
    Upper triangular ordering OK.
    Topological cell zip-up check OK.
    Face vertices OK.
    Face-face connectivity OK.
    Mesh topology OK.
    Boundary openness (-1.303844e-20 -3.025959e-22 5.637997e-14) OK.
    Max cell openness = 1.794542e-16 OK.
    Max aspect ratio = 200 OK.
    Minimum face area = 1.208333e-05. Maximum face area = 0.04.  Face area magnitudes OK.
    Min volume = 6.041667e-07. Max volume = 8e-05.  Total volume = 0.4154667.  Cell volumes OK.
    Mesh non-orthogonality Max: 18.43581 average: 1.866123
    Non-orthogonality check OK.
    Face pyramids OK.
    Max skewness = 1 OK.
    Mesh geometry OK.
Mesh OK.
ExecutionTime = 440.92 s  ClockTime = 441 s

Time = 0.0965
PIMPLE: iteration 1
inverseDistance : detected 2 mesh regions
    zone:0 nCells:138000  voxels:(100 10 1) bb:(-2 1 -0.001) (2 1.5 0.001)
    zone:1 nCells:17200  voxels:(100 10 1) bb:(-2 1 -0.001) (2 1.5 0.001)
Overset analysis : nCells : 155200
    calculated   : 144080
    interpolated : 7576 (from local:7576  mixed local/remote:0  remote:0)
    hole         : 3544

PIMPLE: iteration 2
    Point usage OK.
    Upper triangular ordering OK.
    Topological cell zip-up check OK.
    Face vertices OK.
    Face-face connectivity OK.
    Mesh topology OK.
    Boundary openness (-1.152939e-20 -3.025959e-22 5.637915e-14) OK.
    Max cell openness = 1.794542e-16 OK.
    Max aspect ratio = 200 OK.
    Minimum face area = 1.208333e-05. Maximum face area = 0.04.  Face area magnitudes OK.
    Min volume = 6.041667e-07. Max volume = 8e-05.  Total volume = 0.4154667.  Cell volumes OK.
    Mesh non-orthogonality Max: 18.43581 average: 1.866123
    Non-orthogonality check OK.
    Face pyramids OK.
    Max skewness = 1 OK.
    Mesh geometry OK.
Mesh OK.
ExecutionTime = 443.1 s  ClockTime = 443 s

Time = 0.097
PIMPLE: iteration 1
inverseDistance : detected 2 mesh regions
    zone:0 nCells:138000  voxels:(100 10 1) bb:(-2 1 -0.001) (2 1.5 0.001)
    zone:1 nCells:17200  voxels:(100 10 1) bb:(-2 1 -0.001) (2 1.5 0.001)
Overset analysis : nCells : 155200
    calculated   : 144080
    interpolated : 7576 (from local:7576  mixed local/remote:0  remote:0)
    hole         : 3544

PIMPLE: iteration 2
    Point usage OK.
    Upper triangular ordering OK.
    Topological cell zip-up check OK.
    Face vertices OK.
    Face-face connectivity OK.
    Mesh topology OK.
    Boundary openness (-1.228392e-20 -3.025959e-22 5.638125e-14) OK.
    Max cell openness = 1.794542e-16 OK.
    Max aspect ratio = 200 OK.
    Minimum face area = 1.208333e-05. Maximum face area = 0.04.  Face area magnitudes OK.
    Min volume = 6.041667e-07. Max volume = 8e-05.  Total volume = 0.4154667.  Cell volumes OK.
    Mesh non-orthogonality Max: 18.43581 average: 1.866123
    Non-orthogonality check OK.
    Face pyramids OK.
    Max skewness = 1 OK.
    Mesh geometry OK.
Mesh OK.
ExecutionTime = 445.26 s  ClockTime = 446 s

Time = 0.0975
PIMPLE: iteration 1
inverseDistance : detected 2 mesh regions
    zone:0 nCells:138000  voxels:(100 10 1) bb:(-2 1 -0.001) (2 1.5 0.001)
    zone:1 nCells:17200  voxels:(100 10 1) bb:(-2 1 -0.001) (2 1.5 0.001)
Overset analysis : nCells : 155200
    calculated   : 144080
    interpolated : 7576 (from local:7576  mixed local/remote:0  remote:0)
    hole         : 3544

PIMPLE: iteration 2
    Point usage OK.
    Upper triangular ordering OK.
    Topological cell zip-up check OK.
    Face vertices OK.
    Face-face connectivity OK.
    Mesh topology OK.
    Boundary openness (-1.215816e-20 -3.025959e-22 5.637911e-14) OK.
    Max cell openness = 1.794542e-16 OK.
    Max aspect ratio = 200 OK.
    Minimum face area = 1.208333e-05. Maximum face area = 0.04.  Face area magnitudes OK.
    Min volume = 6.041667e-07. Max volume = 8e-05.  Total volume = 0.4154667.  Cell volumes OK.
    Mesh non-orthogonality Max: 18.43581 average: 1.866123
    Non-orthogonality check OK.
    Face pyramids OK.
    Max skewness = 1 OK.
    Mesh geometry OK.
Mesh OK.
ExecutionTime = 447.51 s  ClockTime = 448 s

Time = 0.098
PIMPLE: iteration 1
inverseDistance : detected 2 mesh regions
    zone:0 nCells:138000  voxels:(100 10 1) bb:(-2 1 -0.001) (2 1.5 0.001)
    zone:1 nCells:17200  voxels:(100 10 1) bb:(-2 1 -0.001) (2 1.5 0.001)
Overset analysis : nCells : 155200
    calculated   : 144080
    interpolated : 7576 (from local:7576  mixed local/remote:0  remote:0)
    hole         : 3544

PIMPLE: iteration 2
    Point usage OK.
    Upper triangular ordering OK.
    Topological cell zip-up check OK.
    Face vertices OK.
